                                   MODFLOW 6
                U.S. GEOLOGICAL SURVEY MODULAR HYDROLOGIC MODEL
                          GROUNDWATER FLOW MODEL (GWF)
                            VERSION 6.4.2 06/28/2023

   MODFLOW 6 compiled Jul 05 2023 20:29:14 with Intel(R) Fortran Intel(R) 64
   Compiler Classic for applications running on Intel(R) 64, Version 2021.7.0
                             Build 20220726_000000

This software has been approved for release by the U.S. Geological 
Survey (USGS). Although the software has been subjected to rigorous 
review, the USGS reserves the right to update the software as needed 
pursuant to further analysis and review. No warranty, expressed or 
implied, is made by the USGS or the U.S. Government as to the 
functionality of the software and related material nor shall the 
fact of release constitute any such warranty. Furthermore, the 
software is released on condition that neither the USGS nor the U.S. 
Government shall be held liable for any damages resulting from its 
authorized or unauthorized use. Also refer to the USGS Water 
Resources Software User Rights Notice for complete use, copyright, 
and distribution information.


As a work of the United States Government, this USGS product is 
in the public domain within the United States. You can copy, 
modify, distribute, and perform the work, even for commercial 
purposes, all without asking permission. Additionally, USGS 
waives copyright and related rights in the work worldwide 
through CC0 1.0 Universal Public Domain Dedication 
(https://creativecommons.org/publicdomain/zero/1.0/).

The following GNU Lesser General Public License (LGPL) libraries
are used in this USGS product:

    SPARSKIT version 2.0
      ilut, luson, and qsplit 
      (https://www-users.cse.umn.edu/~saad/software/SPARSKIT/)

    RCM - Reverse Cuthill McKee Ordering
      (https://people.math.sc.edu/Burkardt/f_src/rcm/rcm.html)

    BLAS - Basic Linear Algebra Subprograms Level 1
      (https://people.math.sc.edu/Burkardt/f_src/blas1_d/blas1_d.html)

    SPARSEKIT - Sparse Matrix Utility Package
      amux, dperm, dvperm, rperm, and cperm
      (https://people.sc.fsu.edu/~jburkardt/f77_src/sparsekit/sparsekit.html)

The following BSD-3 License libraries are used in this USGS product:

    Modern Fortran DAG Library
      Copyright (c) 2018, Jacob Williams
      All rights reserved.
      (https://github.com/jacobwilliams/daglib)

MODFLOW 6 compiler options: -Imac/obj_mf6 -O2 -no-heap-arrays -fpe0
-traceback -fpp -module mac/mod_mf6/ -c -o mac/obj_mf6/compilerversion.o

System command used to initiate simulation:
mf6

MODFLOW was compiled using uniform precision.

Real Variables
  KIND: 8
  TINY (smallest non-zero value):    2.225074-308
  HUGE (largest value):    1.797693+308
  PRECISION: 15
  SIZE IN BITS: 64

Integer Variables
  KIND: 4
  HUGE (largest value): 2147483647
  SIZE IN BITS: 32

Long Integer Variables
  KIND: 8
  HUGE (largest value): 9223372036854775807
  SIZE IN BITS: 64

Logical Variables
  KIND: 4
  SIZE IN BITS: 32
 
 NAMEFILE OPTIONS:
    FLOWS WILL BE SAVED TO BUDGET FILE SPECIFIED IN OUTPUT CONTROL
 END NAMEFILE OPTIONS:

 DIS -- STRUCTURED GRID DISCRETIZATION PACKAGE, VERSION 2 : 3/27/2014 - INPUT READ FROM MEMPATH: __INPUT__/GWF-P09-MF6/DIS                         


 NPF -- NODE PROPERTY FLOW PACKAGE, VERSION 1, 3/30/2015 INPUT READ FROM MEMPATH: __INPUT__/GWF-P09-MF6/NPF                         

 Setting Discretization Options
    Model length unit [0=UND, 1=FEET, 2=METERS, 3=CENTIMETERS] set as 2
 End Setting Discretization Options

 Setting Discretization Dimensions
    NLAY = 1
    NROW = 18
    NCOL = 14
 End Setting Discretization Dimensions

 Setting Discretization Griddata
    DELR set from input file
    DELC set from input file
    TOP set from input file
    BOTM set from input file
    IDOMAIN set from input file
 End Setting Discretization Griddata

 Setting NPF Options
    Specific discharge will be calculated at cell centers and written to DATA-SPDIS in budget file when requested.
 End Setting NPF Options

 Setting NPF Griddata
    ICELLTYPE set from input file
    K set from input file
    K33 set from input file
    K22 not provided.  Setting K22 = K.
 End Setting NPF Griddata


 WEL   -- WEL PACKAGE, VERSION 8, 2/22/2014 INPUT READ FROM UNIT 1008
 # File generated by Flopy version 3.7.0.dev0 on 05/14/2024 at 15:14:54.

 PROCESSING WEL OPTIONS
    AUXILIARY WEL VARIABLE: CONCENTRATION   
    LISTS OF WEL CELLS WILL BE PRINTED.
    WEL FLOWS WILL BE PRINTED TO LISTING FILE.
 END OF WEL OPTIONS

 PROCESSING WEL DIMENSIONS
    MAXBOUND =       2
 END OF WEL DIMENSIONS

 CHD   -- CHD PACKAGE, VERSION 8, 2/22/2014 INPUT READ FROM UNIT 1009
 # File generated by Flopy version 3.7.0.dev0 on 05/14/2024 at 15:14:54.

 PROCESSING CHD OPTIONS
    AUXILIARY CHD VARIABLE: CONCENTRATION   
 END OF CHD OPTIONS

 PROCESSING CHD DIMENSIONS
    MAXBOUND =      28
 END OF CHD DIMENSIONS

 IC -- INITIAL CONDITIONS PACKAGE, VERSION 8, 3/28/2015 INPUT READ FROM UNIT 1006
 # File generated by Flopy version 3.7.0.dev0 on 05/14/2024 at 15:14:54.
 PROCESSING GRIDDATA
 END PROCESSING GRIDDATA

 STO -- STORAGE PACKAGE, VERSION 1, 5/19/2014 INPUT READ FROM UNIT 1005


 # File generated by Flopy version 3.7.0.dev0 on 05/14/2024 at 15:14:54.
 PROCESSING STORAGE OPTIONS
 END OF STORAGE OPTIONS
 PROCESSING GRIDDATA

                 ICONVERT = 0

         SPECIFIC STORAGE =  0.1000000E-04

           SPECIFIC YIELD =  0.1500000    
 END PROCESSING GRIDDATA
    BINARY GRID INFORMATION WILL BE WRITTEN TO:
      UNIT NUMBER: 1023
      FILE NAME: gwf-p09-mf6.dis.grb

 OPENED gwf-p09-mf6.dis.grb
 FILE TYPE:DATA(BINARY)   UNIT 1023   STATUS:REPLACE             
 FORMAT:UNFORMATTED            ACCESS:STREAM              
 ACTION:READWRITE           

      THE LAST TIME STEP WILL BE PRINTED
      THE LAST TIME STEP WILL BE PRINTED
 # File generated by Flopy version 3.7.0.dev0 on 05/14/2024 at 15:14:54.

 PROCESSING OC OPTIONS

    BUDGET INFORMATION WILL BE WRITTEN TO:
      UNIT NUMBER: 1024
      FILE NAME: gwf-p09-mf6.bud

 OPENED gwf-p09-mf6.bud
 FILE TYPE:DATA(BINARY)   UNIT 1024   STATUS:REPLACE             
 FORMAT:UNFORMATTED            ACCESS:STREAM              
 ACTION:READWRITE           

    HEAD INFORMATION WILL BE WRITTEN TO:
      UNIT NUMBER: 1025
      FILE NAME: gwf-p09-mf6.hds

 OPENED gwf-p09-mf6.hds
 FILE TYPE:DATA(BINARY)   UNIT 1025   STATUS:REPLACE             
 FORMAT:UNFORMATTED            ACCESS:STREAM              
 ACTION:READWRITE           

 END OF OC OPTIONS

start timestep kper="1" kstp="1" mode="normal"


 BEGIN READING OUTPUT CONTROL FOR STRESS PERIOD 1
      THE LAST TIME STEP WILL BE SAVED
      THE LAST TIME STEP WILL BE SAVED
      THE LAST TIME STEP WILL BE PRINTED
      THE LAST TIME STEP WILL BE PRINTED

 END READING OUTPUT CONTROL FOR STRESS PERIOD 1


 STRESS PERIOD 1 IS TRANSIENT

 --------------------------------------------------------------------
  WEL NO.    LAYER    ROW     COL     STRESS RATE     CONCENTRATION  
 --------------------------------------------------------------------
     1         1       4       7     1.000000000E-03  57.8700000     
     2         1      11       7    -1.890000000E-02  0.00000000     
 --------------------------------------------------------------------


 UBDSV1 SAVING           STO-SS ON UNIT   1024 AT TIME STEP      1, STRESS PERIOD      1
 UBDSV1 SAVING     FLOW-JA-FACE ON UNIT   1024 AT TIME STEP      1, STRESS PERIOD      1
 UBDSV06 SAVING       DATA-SPDIS IN MODEL GWF-P09-MF6      PACKAGE NPF             CONNECTED TO MODEL GWF-P09-MF6      PACKAGE NPF              ON UNIT   1024 AT TIME STEP      1, STRESS PERIOD      1
 UBDSV06 SAVING              WEL IN MODEL GWF-P09-MF6      PACKAGE GWF-P09-MF6     CONNECTED TO MODEL GWF-P09-MF6      PACKAGE WEL-1            ON UNIT   1024 AT TIME STEP      1, STRESS PERIOD      1
 UBDSV06 SAVING              CHD IN MODEL GWF-P09-MF6      PACKAGE GWF-P09-MF6     CONNECTED TO MODEL GWF-P09-MF6      PACKAGE CHD-1            ON UNIT   1024 AT TIME STEP      1, STRESS PERIOD      1

 WEL PACKAGE (WEL-1) FLOW RATES   PERIOD      1   STEP        1
 -----------------------------------------------
   NUMBER   CELLID                    RATE      
 -----------------------------------------------
     1      (1,4,7)               1.00000000E-03
     2      (1,11,7)             -1.89000000E-02
 -----------------------------------------------



1
  HEAD IN LAYER   1 AT END OF TIME STEP   1 IN STRESS PERIOD    1
  ---------------------------------------------------------------------------

                1               2               3               4               5               6               7               8               9              10
               11              12              13              14
 ................................................................................................................................................................
   1      250.000         250.000         250.000         250.000         250.000         250.000         250.000         250.000         250.000         250.000    
          250.000         250.000         250.000         250.000    
   2      28.8387         28.8387         28.8387         28.8387         28.8387         28.8389         28.8393         28.8389         28.8387         28.8387    
          28.8387         28.8387         28.8387         28.8387    
   3      3.32670         3.32674         3.32675         3.32677         3.32693         3.32796         3.33309         3.32795         3.32687         3.32671    
          3.32669         3.32668         3.32668         3.32668    
   4     0.383851        0.384245        0.384329        0.384398        0.384967        0.390690        0.449643        0.390598        0.384467        0.383825    
         0.383757        0.383750        0.383749        0.383749    
   5     4.475436E-02    4.887587E-02    4.931289E-02    4.938349E-02    4.956821E-02    5.073689E-02    5.626567E-02    5.025050E-02    4.490100E-02    4.433493E-02
         4.427455E-02    4.426807E-02    4.426737E-02    4.426730E-02
   6     5.161413E-03    1.590228E-05    1.451660E-05    1.453718E-05    1.459160E-05    1.493577E-05    1.656285E-05    1.630999E-05    5.171343E-03    5.118857E-03
         5.108283E-03    5.106687E-03    5.106475E-03    5.106449E-03
   7     5.952413E-04    1.775176E-07    2.164172E-09    2.136890E-09    2.118292E-09    2.038582E-09    1.902134E-09    1.753776E-07    5.883236E-04    5.885822E-04
         5.889014E-04    5.890181E-04    5.890479E-04    5.890539E-04
   8     6.853102E-05    1.968825E-08   -5.292880E-09   -3.570143E-08   -2.162581E-07   -1.101371E-06   -3.828081E-06   -1.099662E-06   -2.380174E-06    5.135884E-05
         6.496229E-05    6.748910E-05    6.789915E-05    6.795976E-05
   9     6.889853E-06   -1.705993E-06   -1.797840E-05   -1.212045E-04   -7.342823E-04   -3.740461E-03   -1.300681E-02   -3.733018E-03   -6.629560E-04   -9.728540E-05
        -7.178777E-06    5.941443E-06    7.745744E-06    7.983030E-06
  10     5.870962E-07   -5.606782E-06   -5.303076E-05   -4.338779E-04   -3.324210E-03   -2.286403E-02   -0.119815       -2.286251E-02   -3.316813E-03   -4.303778E-04
        -5.103727E-05   -3.981928E-06    1.708654E-06    2.402729E-06
  11     4.461230E-06   -6.315336E-06   -1.144344E-04   -1.180607E-03   -1.181696E-02   -0.119692        -1.23338       -0.119691       -1.181353E-02   -1.176170E-03
        -1.088605E-04    4.455433E-07    1.226064E-05    1.381810E-05
  12     4.937808E-05    4.747378E-05    5.862383E-06   -3.667021E-04   -3.239894E-03   -2.273616E-02   -0.119614       -2.272436E-02   -3.216267E-03   -3.313606E-04
         5.278459E-05    1.053888E-04    1.162521E-04    1.205399E-04
  13     4.311930E-04    4.630444E-04    4.968842E-04    4.600262E-04   -2.003704E-05   -2.646563E-03   -1.110832E-02   -2.544437E-03    1.841883E-04    7.661801E-04
         9.040811E-04    9.670651E-04    1.015510E-03    1.049335E-03
  14     3.706482E-03    4.018041E-03    4.429596E-03    4.850889E-03    5.210345E-03    5.323299E-03    5.009830E-03    6.208621E-03    6.980867E-03    7.505785E-03
         7.963825E-03    8.404112E-03    8.818885E-03    9.130934E-03
  15     3.181595E-02    3.473248E-02    3.840410E-02    4.221329E-02    4.603556E-02    4.983422E-02    5.360370E-02    5.750912E-02    6.138488E-02    6.523346E-02
         6.906997E-02    7.288234E-02    7.655458E-02    7.947122E-02
  16     0.272857        0.300326        0.332784        0.365949        0.399202        0.432463        0.465723        0.498996        0.532267        0.565534    
         0.598789        0.631954        0.664412        0.691882    
  17      2.33756         2.59842         2.88416         3.17229         3.46065         3.74903         4.03742         4.32580         4.61419         4.90258    
          5.19094         5.47907         5.76480         6.02567    
  18      20.0000         22.5000         25.0000         27.5000         30.0000         32.5000         35.0000         37.5000         40.0000         42.5000    
          45.0000         47.5000         50.0000         52.5000    

 HEAD WILL BE SAVED ON UNIT 1025 AT END OF TIME STEP    1, STRESS PERIOD    1


  VOLUME BUDGET FOR ENTIRE MODEL AT END OF TIME STEP    1, STRESS PERIOD   1
  ---------------------------------------------------------------------------------------------------

     CUMULATIVE VOLUME      L**3       RATES FOR THIS TIME STEP      L**3/T          PACKAGE NAME    
     ------------------                 ------------------------                     ----------------

           IN:                                      IN:
           ---                                      ---
              STO-SS =           1.8828                STO-SS =       1.8828E-02     STORAGE                          
                 WEL =           0.1000                   WEL =       1.0000E-03     WEL-1                            
                 CHD =         522.5646                   CHD =           5.2256     CHD-1                            

            TOTAL IN =         524.5474              TOTAL IN =           5.2455

          OUT:                                     OUT:
          ----                                     ----
              STO-SS =         522.6574                STO-SS =           5.2266     STORAGE                          
                 WEL =           1.8900                   WEL =       1.8900E-02     WEL-1                            
                 CHD =           0.0000                   CHD =           0.0000     CHD-1                            

           TOTAL OUT =         524.5474             TOTAL OUT =           5.2455

            IN - OUT =       3.7126E-08              IN - OUT =       3.7126E-10

 PERCENT DISCREPANCY =           0.00     PERCENT DISCREPANCY =           0.00




         TIME SUMMARY AT END OF TIME STEP    1 IN STRESS PERIOD    1
                    SECONDS     MINUTES      HOURS       DAYS        YEARS
                    -----------------------------------------------------------
   TIME STEP LENGTH  100.00      1.6667     2.77778E-02 1.15741E-03 3.16881E-06
 STRESS PERIOD TIME  100.00      1.6667     2.77778E-02 1.15741E-03 3.16881E-06
         TOTAL TIME  100.00      1.6667     2.77778E-02 1.15741E-03 3.16881E-06


end timestep


start timestep kper="2" kstp="1" mode="normal"


 END OF FILE DETECTED IN OUTPUT CONTROL.
 CURRENT OUTPUT CONTROL SETTINGS WILL BE 
 REPEATED UNTIL THE END OF THE SIMULATION.

 OUTPUT CONTROL FOR STRESS PERIOD 2 IS REPEATED USING SETTINGS FROM A PREVIOUS STRESS PERIOD.


 STRESS PERIOD 2 IS TRANSIENT

 --------------------------------------------------------------------
  WEL NO.    LAYER    ROW     COL     STRESS RATE     CONCENTRATION  
 --------------------------------------------------------------------
     1         1       4       7     1.000000000E-03  0.00000000     
     2         1      11       7    -1.890000000E-02  0.00000000     
 --------------------------------------------------------------------



 REUSING CHDS FROM LAST STRESS PERIOD
 UBDSV1 SAVING           STO-SS ON UNIT   1024 AT TIME STEP      1, STRESS PERIOD      2
 UBDSV1 SAVING     FLOW-JA-FACE ON UNIT   1024 AT TIME STEP      1, STRESS PERIOD      2
 UBDSV06 SAVING       DATA-SPDIS IN MODEL GWF-P09-MF6      PACKAGE NPF             CONNECTED TO MODEL GWF-P09-MF6      PACKAGE NPF              ON UNIT   1024 AT TIME STEP      1, STRESS PERIOD      2
 UBDSV06 SAVING              WEL IN MODEL GWF-P09-MF6      PACKAGE GWF-P09-MF6     CONNECTED TO MODEL GWF-P09-MF6      PACKAGE WEL-1            ON UNIT   1024 AT TIME STEP      1, STRESS PERIOD      2
 UBDSV06 SAVING              CHD IN MODEL GWF-P09-MF6      PACKAGE GWF-P09-MF6     CONNECTED TO MODEL GWF-P09-MF6      PACKAGE CHD-1            ON UNIT   1024 AT TIME STEP      1, STRESS PERIOD      2

 WEL PACKAGE (WEL-1) FLOW RATES   PERIOD      2   STEP        1
 -----------------------------------------------
   NUMBER   CELLID                    RATE      
 -----------------------------------------------
     1      (1,4,7)               1.00000000E-03
     2      (1,11,7)             -1.89000000E-02
 -----------------------------------------------



1
  HEAD IN LAYER   1 AT END OF TIME STEP   1 IN STRESS PERIOD    2
  ---------------------------------------------------------------------------

                1               2               3               4               5               6               7               8               9              10
               11              12              13              14
 ................................................................................................................................................................
   1      250.000         250.000         250.000         250.000         250.000         250.000         250.000         250.000         250.000         250.000    
          250.000         250.000         250.000         250.000    
   2      51.7122         51.7122         51.7122         51.7122         51.7124         51.7129         51.7141         51.7128         51.7123         51.7122    
          51.7122         51.7122         51.7122         51.7122    
   3      8.60393         8.60416         8.60425         8.60435         8.60491         8.60792         8.61926         8.60783         8.60456         8.60393    
          8.60383         8.60381         8.60381         8.60381    
   4      1.29751         1.29967         1.30018         1.30048         1.30220         1.31533         1.40991         1.31475         1.29937         1.29719    
          1.29690         1.29687         1.29686         1.29686    
   5     0.187456        0.207270        0.209691        0.210089        0.210789        0.214272        0.226587        0.211536        0.187898        0.185090    
         0.184755        0.184715        0.184711        0.184710    
   6     2.571170E-02    8.445334E-05    7.623914E-05    7.637573E-05    7.663641E-05    7.800589E-05    8.325666E-05    8.612254E-05    2.573101E-02    2.543609E-02
         2.537013E-02    2.535920E-02    2.535761E-02    2.535740E-02
   7     3.437163E-03    1.201367E-06    1.356752E-08    1.335825E-08    1.323580E-08    1.275381E-08    1.200386E-08    1.185413E-06    3.392077E-03    3.390338E-03
         3.391415E-03    3.392065E-03    3.392266E-03    3.392312E-03
   8     4.498361E-04    1.492535E-07   -3.629511E-08   -2.204915E-07   -1.185513E-06   -5.285191E-06   -1.587408E-05   -5.244659E-06    8.314035E-05    3.496431E-04
         4.260806E-04    4.419798E-04    4.448401E-04    4.453033E-04
   9     5.028064E-05   -1.002915E-05   -1.053307E-04   -6.274056E-04   -3.291344E-03   -1.421094E-02   -4.093691E-02   -1.416596E-02   -2.911899E-03   -4.773265E-04
        -2.879860E-05    4.557757E-05    5.707722E-05    5.875443E-05
  10     5.409371E-06   -3.152424E-05   -2.713884E-04   -1.920995E-03   -1.239003E-02   -6.946744E-02   -0.284001       -6.945717E-02   -1.234487E-02   -1.896551E-03
        -2.562033E-04   -1.904599E-05    1.381473E-05    1.832963E-05
  11     3.018728E-05   -2.591952E-05   -5.090988E-04   -4.484151E-03   -3.638521E-02   -0.283438        -2.07002       -0.283427       -3.636254E-02   -4.454708E-03
        -4.723165E-04    1.842940E-05    8.102995E-05    9.047351E-05
  12     2.856042E-04    2.737578E-04    6.755765E-05   -1.533403E-03   -1.190624E-02   -6.876682E-02   -0.282992       -6.869879E-02   -1.177006E-02   -1.329869E-03
         3.374388E-04    6.060608E-04    6.679548E-04    6.921167E-04
  13     2.155487E-03    2.302959E-03    2.457531E-03    2.274012E-03    2.657394E-04   -9.015580E-03   -3.287640E-02   -8.508458E-03    1.279777E-03    3.793721E-03
         4.477057E-03    4.797118E-03    5.035517E-03    5.195662E-03
  14     1.557596E-02    1.680752E-02    1.848714E-02    2.021272E-02    2.164954E-02    2.210611E-02    2.132974E-02    2.580012E-02    2.903668E-02    3.128756E-02
         3.321996E-02    3.505392E-02    3.675412E-02    3.798915E-02
  15     0.108290        0.117631        0.129841        0.142659        0.155541        0.168320        0.181008        0.194256        0.207412        0.220442    
         0.233405        0.246244        0.258458        0.267799    
  16     0.710487        0.777992        0.860917        0.946489         1.03245         1.11846         1.20447         1.29053         1.37660         1.46263    
          1.54861         1.63419         1.71711         1.78462    
  17      4.21418         4.66354         5.17233         5.68847         6.20547         6.72258         7.23969         7.75682         8.27394         8.79105    
          9.30806         9.82419         10.3330         10.7823    
  18      20.0000         22.5000         25.0000         27.5000         30.0000         32.5000         35.0000         37.5000         40.0000         42.5000    
          45.0000         47.5000         50.0000         52.5000    

 HEAD WILL BE SAVED ON UNIT 1025 AT END OF TIME STEP    1, STRESS PERIOD    2


  VOLUME BUDGET FOR ENTIRE MODEL AT END OF TIME STEP    1, STRESS PERIOD   2
  ---------------------------------------------------------------------------------------------------

     CUMULATIVE VOLUME      L**3       RATES FOR THIS TIME STEP      L**3/T          PACKAGE NAME    
     ------------------                 ------------------------                     ----------------

           IN:                                      IN:
           ---                                      ---
              STO-SS =           3.7459                STO-SS =       1.8630E-02     STORAGE                          
                 WEL =           0.2000                   WEL =       1.0000E-03     WEL-1                            
                 CHD =         991.0829                   CHD =           4.6852     CHD-1                            

            TOTAL IN =         995.0288              TOTAL IN =           4.7048

          OUT:                                     OUT:
          ----                                     ----
              STO-SS =         991.2488                STO-SS =           4.6859     STORAGE                          
                 WEL =           3.7800                   WEL =       1.8900E-02     WEL-1                            
                 CHD =           0.0000                   CHD =           0.0000     CHD-1                            

           TOTAL OUT =         995.0288             TOTAL OUT =           4.7048

            IN - OUT =       8.1965E-08              IN - OUT =       4.4839E-10

 PERCENT DISCREPANCY =           0.00     PERCENT DISCREPANCY =           0.00




         TIME SUMMARY AT END OF TIME STEP    1 IN STRESS PERIOD    2
                    SECONDS     MINUTES      HOURS       DAYS        YEARS
                    -----------------------------------------------------------
   TIME STEP LENGTH  100.00      1.6667     2.77778E-02 1.15741E-03 3.16881E-06
 STRESS PERIOD TIME  100.00      1.6667     2.77778E-02 1.15741E-03 3.16881E-06
         TOTAL TIME  200.00      3.3333     5.55556E-02 2.31481E-03 6.33762E-06


end timestep


start timestep kper="3" kstp="1" mode="normal"


 OUTPUT CONTROL FOR STRESS PERIOD 3 IS REPEATED USING SETTINGS FROM A PREVIOUS STRESS PERIOD.


 STRESS PERIOD 3 IS TRANSIENT


 REUSING WELS FROM LAST STRESS PERIOD

 REUSING CHDS FROM LAST STRESS PERIOD
 UBDSV1 SAVING           STO-SS ON UNIT   1024 AT TIME STEP      1, STRESS PERIOD      3
 UBDSV1 SAVING     FLOW-JA-FACE ON UNIT   1024 AT TIME STEP      1, STRESS PERIOD      3
 UBDSV06 SAVING       DATA-SPDIS IN MODEL GWF-P09-MF6      PACKAGE NPF             CONNECTED TO MODEL GWF-P09-MF6      PACKAGE NPF              ON UNIT   1024 AT TIME STEP      1, STRESS PERIOD      3
 UBDSV06 SAVING              WEL IN MODEL GWF-P09-MF6      PACKAGE GWF-P09-MF6     CONNECTED TO MODEL GWF-P09-MF6      PACKAGE WEL-1            ON UNIT   1024 AT TIME STEP      1, STRESS PERIOD      3
 UBDSV06 SAVING              CHD IN MODEL GWF-P09-MF6      PACKAGE GWF-P09-MF6     CONNECTED TO MODEL GWF-P09-MF6      PACKAGE CHD-1            ON UNIT   1024 AT TIME STEP      1, STRESS PERIOD      3

 WEL PACKAGE (WEL-1) FLOW RATES   PERIOD      3   STEP        1
 -----------------------------------------------
   NUMBER   CELLID                    RATE      
 -----------------------------------------------
     1      (1,4,7)               1.00000000E-03
     2      (1,11,7)             -1.89000000E-02
 -----------------------------------------------



1
  HEAD IN LAYER   1 AT END OF TIME STEP   1 IN STRESS PERIOD    3
  ---------------------------------------------------------------------------

                1               2               3               4               5               6               7               8               9              10
               11              12              13              14
 ................................................................................................................................................................
   1      250.000         250.000         250.000         250.000         250.000         250.000         250.000         250.000         250.000         250.000    
          250.000         250.000         250.000         250.000    
   2      70.0990         70.0991         70.0992         70.0992         70.0995         70.1006         70.1029         70.1005         70.0994         70.0990    
          70.0990         70.0989         70.0989         70.0989    
   3      14.9391         14.9399         14.9402         14.9405         14.9417         14.9473         14.9644         14.9469         14.9405         14.9389    
          14.9387         14.9386         14.9386         14.9386    
   4      2.75744         2.76421         2.76598         2.76679         2.77011         2.79062         2.90721         2.78855         2.76092         2.75601    
          2.75524         2.75512         2.75511         2.75510    
   5     0.473584        0.529426        0.537125        0.538437        0.540065        0.546615        0.564959        0.537781        0.474248        0.465944    
         0.464856        0.464714        0.464696        0.464693    
   6     7.504948E-02    2.622778E-04    2.343258E-04    2.348444E-04    2.355846E-04    2.388825E-04    2.495306E-04    2.663952E-04    7.501126E-02    7.404609E-02
         7.381032E-02    7.376792E-02    7.376125E-02    7.376029E-02
   7     1.138534E-02    4.589790E-06    4.874149E-08    4.784647E-08    4.739458E-08    4.574895E-08    4.354323E-08    4.523407E-06    1.121955E-02    1.120173E-02
         1.120164E-02    1.120335E-02    1.120406E-02    1.120425E-02
   8     1.666436E-03    6.307150E-07   -1.391557E-07   -7.720266E-07   -3.746570E-06   -1.494282E-05   -3.995427E-05   -1.468498E-05    5.717724E-04    1.334160E-03
         1.577668E-03    1.633630E-03    1.644673E-03    1.646615E-03
   9     2.045944E-04   -3.195745E-05   -3.495673E-04   -1.872760E-03   -8.697657E-03   -3.280824E-02   -8.184997E-02   -3.265294E-02   -7.522160E-03   -1.335277E-03
        -4.609381E-05    1.932968E-04    2.343651E-04    2.409355E-04
  10     2.620885E-05   -9.973188E-05   -8.016470E-04   -5.023607E-03   -2.810717E-02   -0.134112       -0.457817       -0.134072       -2.794940E-02   -4.927574E-03
        -7.374043E-04   -4.654826E-05    6.132289E-05    7.779112E-05
  11     1.148731E-04   -5.427026E-05   -1.331094E-03   -1.036177E-02   -7.122513E-02   -0.456276        -2.66045       -0.456237       -7.114067E-02   -1.025146E-02
        -1.193994E-03    1.100107E-04    3.019932E-04    3.345199E-04
  12     9.472113E-04    9.065334E-04    3.166765E-04   -3.742539E-03   -2.651857E-02   -0.131898       -0.454826       -0.131673       -2.606839E-02   -3.070273E-03
         1.206832E-03    1.999909E-03    2.201197E-03    2.279459E-03
  13     6.308742E-03    6.709430E-03    7.123893E-03    6.606139E-03    1.657548E-03   -1.826923E-02   -6.105228E-02   -1.679415E-02    4.606817E-03    1.102459E-02
         1.298988E-02    1.393784E-02    1.462536E-02    1.507162E-02
  14     3.944635E-02    4.239320E-02    4.652115E-02    5.077591E-02    5.425423E-02    5.543662E-02    5.452778E-02    6.472964E-02    7.283674E-02    7.862802E-02
         8.354352E-02    8.814921E-02    9.235078E-02    9.531117E-02
  15     0.231580        0.250476        0.275982        0.303071        0.330345        0.357357        0.384221        0.412456        0.440533        0.468277    
         0.495815        0.522977        0.548500        0.567399    
  16      1.24125         1.35320         1.49532         1.64346         1.79262         1.94190         2.09120         2.24067         2.39012         2.53951    
          2.68872         2.83687         2.97899         3.09095    
  17      5.73978         6.32813         7.01255         7.71123         8.41191         9.11285         9.81383         10.5148         11.2158         11.9168    
          12.6175         13.3161         14.0006         14.5889    
  18      20.0000         22.5000         25.0000         27.5000         30.0000         32.5000         35.0000         37.5000         40.0000         42.5000    
          45.0000         47.5000         50.0000         52.5000    

 HEAD WILL BE SAVED ON UNIT 1025 AT END OF TIME STEP    1, STRESS PERIOD    3


  VOLUME BUDGET FOR ENTIRE MODEL AT END OF TIME STEP    1, STRESS PERIOD   3
  ---------------------------------------------------------------------------------------------------

     CUMULATIVE VOLUME      L**3       RATES FOR THIS TIME STEP      L**3/T          PACKAGE NAME    
     ------------------                 ------------------------                     ----------------

           IN:                                      IN:
           ---                                      ---
              STO-SS =           5.5734                STO-SS =       1.8275E-02     STORAGE                          
                 WEL =           0.3000                   WEL =       1.0000E-03     WEL-1                            
                 CHD =        1416.1558                   CHD =           4.2507     CHD-1                            

            TOTAL IN =        1422.0292              TOTAL IN =           4.2700

          OUT:                                     OUT:
          ----                                     ----
              STO-SS =        1416.3592                STO-SS =           4.2511     STORAGE                          
                 WEL =           5.6700                   WEL =       1.8900E-02     WEL-1                            
                 CHD =           0.0000                   CHD =           0.0000     CHD-1                            

           TOTAL OUT =        1422.0292             TOTAL OUT =           4.2700

            IN - OUT =       1.3329E-07              IN - OUT =       5.1327E-10

 PERCENT DISCREPANCY =           0.00     PERCENT DISCREPANCY =           0.00




         TIME SUMMARY AT END OF TIME STEP    1 IN STRESS PERIOD    3
                    SECONDS     MINUTES      HOURS       DAYS        YEARS
                    -----------------------------------------------------------
   TIME STEP LENGTH  100.00      1.6667     2.77778E-02 1.15741E-03 3.16881E-06
 STRESS PERIOD TIME  100.00      1.6667     2.77778E-02 1.15741E-03 3.16881E-06
         TOTAL TIME  300.00      5.0000     8.33333E-02 3.47222E-03 9.50643E-06


end timestep


start timestep kper="4" kstp="1" mode="normal"


 OUTPUT CONTROL FOR STRESS PERIOD 4 IS REPEATED USING SETTINGS FROM A PREVIOUS STRESS PERIOD.


 STRESS PERIOD 4 IS TRANSIENT


 REUSING WELS FROM LAST STRESS PERIOD

 REUSING CHDS FROM LAST STRESS PERIOD
 UBDSV1 SAVING           STO-SS ON UNIT   1024 AT TIME STEP      1, STRESS PERIOD      4
 UBDSV1 SAVING     FLOW-JA-FACE ON UNIT   1024 AT TIME STEP      1, STRESS PERIOD      4
 UBDSV06 SAVING       DATA-SPDIS IN MODEL GWF-P09-MF6      PACKAGE NPF             CONNECTED TO MODEL GWF-P09-MF6      PACKAGE NPF              ON UNIT   1024 AT TIME STEP      1, STRESS PERIOD      4
 UBDSV06 SAVING              WEL IN MODEL GWF-P09-MF6      PACKAGE GWF-P09-MF6     CONNECTED TO MODEL GWF-P09-MF6      PACKAGE WEL-1            ON UNIT   1024 AT TIME STEP      1, STRESS PERIOD      4
 UBDSV06 SAVING              CHD IN MODEL GWF-P09-MF6      PACKAGE GWF-P09-MF6     CONNECTED TO MODEL GWF-P09-MF6      PACKAGE CHD-1            ON UNIT   1024 AT TIME STEP      1, STRESS PERIOD      4

 WEL PACKAGE (WEL-1) FLOW RATES   PERIOD      4   STEP        1
 -----------------------------------------------
   NUMBER   CELLID                    RATE      
 -----------------------------------------------
     1      (1,4,7)               1.00000000E-03
     2      (1,11,7)             -1.89000000E-02
 -----------------------------------------------



1
  HEAD IN LAYER   1 AT END OF TIME STEP   1 IN STRESS PERIOD    4
  ---------------------------------------------------------------------------

                1               2               3               4               5               6               7               8               9              10
               11              12              13              14
 ................................................................................................................................................................
   1      250.000         250.000         250.000         250.000         250.000         250.000         250.000         250.000         250.000         250.000    
          250.000         250.000         250.000         250.000    
   2      85.0760         85.0763         85.0765         85.0766         85.0772         85.0790         85.0823         85.0788         85.0767         85.0760    
          85.0758         85.0758         85.0758         85.0758    
   3      21.7598         21.7619         21.7628         21.7634         21.7656         21.7740         21.7958         21.7729         21.7622         21.7592    
          21.7586         21.7585         21.7585         21.7585    
   4      4.71506         4.73112         4.73568         4.73746         4.74272         4.76989         4.90018         4.76440         4.72021         4.71083    
          4.70914         4.70886         4.70882         4.70881    
   5     0.935321         1.05581         1.07427         1.07755         1.08057         1.09050         1.11304         1.06901        0.935689        0.916762    
         0.914072        0.913691        0.913637        0.913630    
   6     0.167633        6.221226E-04    5.504702E-04    5.519448E-04    5.535733E-04    5.597937E-04    5.770775E-04    6.300307E-04    0.167321        0.164924    
         0.164292        0.164169        0.164149        0.164146    
   7     2.839233E-02    1.303389E-05    1.316853E-07    1.288680E-07    1.276332E-07    1.234367E-07    1.187936E-07    1.283019E-05    2.793833E-02    2.786201E-02
         2.785015E-02    2.785241E-02    2.785409E-02    2.785462E-02
   8     4.587905E-03    1.960872E-06   -3.936123E-07   -2.017517E-06   -8.955463E-06   -3.249264E-05   -7.903787E-05   -3.148689E-05    2.112227E-03    3.763169E-03
         4.342212E-03    4.487624E-03    4.518817E-03    4.524730E-03
   9     6.126407E-04   -7.176713E-05   -8.650353E-04   -4.229524E-03   -1.769210E-02   -5.962810E-02   -0.132875       -5.922482E-02   -1.490961E-02   -2.784702E-03
         2.326423E-05    5.993031E-04    7.077670E-04    7.266276E-04
  10     9.007732E-05   -2.331333E-04   -1.792613E-03   -1.012877E-02   -5.027470E-02   -0.210389       -0.626204       -0.210279       -4.985953E-02   -9.848908E-03
        -1.593224E-03   -6.698816E-05    1.980033E-04    2.424486E-04
  11     3.240249E-04   -6.326065E-05   -2.666477E-03   -1.885306E-02   -0.113279       -0.622938        -3.09366       -0.622829       -0.113045       -1.854578E-02
        -2.286370E-03    3.892983E-04    8.360640E-04    9.197991E-04
  12     2.364198E-03    2.261549E-03    9.834469E-04   -6.945198E-03   -4.635428E-02   -0.205100       -0.619392       -0.204541       -4.523399E-02   -5.273756E-03
         3.193264E-03    4.969255E-03    5.460438E-03    5.651584E-03
  13     1.412023E-02    1.495459E-02    1.580746E-02    1.471543E-02    5.336803E-03   -2.834352E-02   -9.072427E-02   -2.506104E-02    1.189895E-02    2.454249E-02
         2.884041E-02    3.097885E-02    3.249640E-02    3.345192E-02
  14     7.803703E-02    8.356648E-02    9.148793E-02    9.967813E-02    0.106291        0.108767        0.108597        0.127037        0.142820        0.154413    
         0.164181        0.173220        0.181336        0.186904    
  15     0.398234        0.429117        0.471966        0.517984        0.564409        0.610334        0.656122        0.704503        0.752716        0.800256    
         0.847318        0.893527        0.936425        0.967318    
  16      1.81817         1.97465         2.17889         2.39391         2.61097         2.82830         3.04570         3.26346         3.48121         3.69881    
          3.91599         4.13105         4.33530         4.49178    
  17      6.99560         7.68847         8.51253         9.35907         10.2092         11.0598         11.9105         12.7613         13.6121         14.4628    
          15.3129         16.1594         16.9835         17.6764    
  18      20.0000         22.5000         25.0000         27.5000         30.0000         32.5000         35.0000         37.5000         40.0000         42.5000    
          45.0000         47.5000         50.0000         52.5000    

 HEAD WILL BE SAVED ON UNIT 1025 AT END OF TIME STEP    1, STRESS PERIOD    4


  VOLUME BUDGET FOR ENTIRE MODEL AT END OF TIME STEP    1, STRESS PERIOD   4
  ---------------------------------------------------------------------------------------------------

     CUMULATIVE VOLUME      L**3       RATES FOR THIS TIME STEP      L**3/T          PACKAGE NAME    
     ------------------                 ------------------------                     ----------------

           IN:                                      IN:
           ---                                      ---
              STO-SS =           7.3483                STO-SS =       1.7749E-02     STORAGE                          
                 WEL =           0.4000                   WEL =       1.0000E-03     WEL-1                            
                 CHD =        1805.8397                   CHD =           3.8968     CHD-1                            

            TOTAL IN =        1813.5880              TOTAL IN =           3.9156

          OUT:                                     OUT:
          ----                                     ----
              STO-SS =        1806.0280                STO-SS =           3.8967     STORAGE                          
                 WEL =           7.5600                   WEL =       1.8900E-02     WEL-1                            
                 CHD =           0.0000                   CHD =           0.0000     CHD-1                            

           TOTAL OUT =        1813.5880             TOTAL OUT =           3.9156

            IN - OUT =       1.8703E-07              IN - OUT =       5.3743E-10

 PERCENT DISCREPANCY =           0.00     PERCENT DISCREPANCY =           0.00




         TIME SUMMARY AT END OF TIME STEP    1 IN STRESS PERIOD    4
                    SECONDS     MINUTES      HOURS       DAYS        YEARS
                    -----------------------------------------------------------
   TIME STEP LENGTH  100.00      1.6667     2.77778E-02 1.15741E-03 3.16881E-06
 STRESS PERIOD TIME  100.00      1.6667     2.77778E-02 1.15741E-03 3.16881E-06
         TOTAL TIME  400.00      6.6667     0.11111     4.62963E-03 1.26752E-05


end timestep


start timestep kper="5" kstp="1" mode="normal"


 OUTPUT CONTROL FOR STRESS PERIOD 5 IS REPEATED USING SETTINGS FROM A PREVIOUS STRESS PERIOD.


 STRESS PERIOD 5 IS TRANSIENT


 REUSING WELS FROM LAST STRESS PERIOD

 REUSING CHDS FROM LAST STRESS PERIOD
 UBDSV1 SAVING           STO-SS ON UNIT   1024 AT TIME STEP      1, STRESS PERIOD      5
 UBDSV1 SAVING     FLOW-JA-FACE ON UNIT   1024 AT TIME STEP      1, STRESS PERIOD      5
 UBDSV06 SAVING       DATA-SPDIS IN MODEL GWF-P09-MF6      PACKAGE NPF             CONNECTED TO MODEL GWF-P09-MF6      PACKAGE NPF              ON UNIT   1024 AT TIME STEP      1, STRESS PERIOD      5
 UBDSV06 SAVING              WEL IN MODEL GWF-P09-MF6      PACKAGE GWF-P09-MF6     CONNECTED TO MODEL GWF-P09-MF6      PACKAGE WEL-1            ON UNIT   1024 AT TIME STEP      1, STRESS PERIOD      5
 UBDSV06 SAVING              CHD IN MODEL GWF-P09-MF6      PACKAGE GWF-P09-MF6     CONNECTED TO MODEL GWF-P09-MF6      PACKAGE CHD-1            ON UNIT   1024 AT TIME STEP      1, STRESS PERIOD      5

 WEL PACKAGE (WEL-1) FLOW RATES   PERIOD      5   STEP        1
 -----------------------------------------------
   NUMBER   CELLID                    RATE      
 -----------------------------------------------
     1      (1,4,7)               1.00000000E-03
     2      (1,11,7)             -1.89000000E-02
 -----------------------------------------------



1
  HEAD IN LAYER   1 AT END OF TIME STEP   1 IN STRESS PERIOD    5
  ---------------------------------------------------------------------------

                1               2               3               4               5               6               7               8               9              10
               11              12              13              14
 ................................................................................................................................................................
   1      250.000         250.000         250.000         250.000         250.000         250.000         250.000         250.000         250.000         250.000    
          250.000         250.000         250.000         250.000    
   2      97.4338         97.4345         97.4348         97.4352         97.4361         97.4388         97.4430         97.4383         97.4349         97.4337    
          97.4333         97.4332         97.4332         97.4332    
   3      28.7055         28.7100         28.7121         28.7133         28.7166         28.7279         28.7533         28.7253         28.7090         28.7039    
          28.7026         28.7024         28.7023         28.7023    
   4      7.09414         7.12600         7.13577         7.13925         7.14669         7.17959         7.31815         7.16756         7.10053         7.08425    
          7.08098         7.08039         7.08029         7.08028    
   5      1.59117         1.81159         1.84861         1.85553         1.86044         1.87366         1.89785         1.82991         1.59010         1.55347    
          1.54787         1.54701         1.54688         1.54686    
   6     0.317276        1.248148E-03    1.094436E-03    1.097923E-03    1.100997E-03    1.111107E-03    1.135519E-03    1.261136E-03    0.316227        0.311228    
         0.309815        0.309523        0.309470        0.309462    
   7     5.922332E-02    3.063767E-05    2.972536E-07    2.899712E-07    2.871839E-07    2.782668E-07    2.705490E-07    3.012311E-05    5.819114E-02    5.796419E-02
         5.791065E-02    5.790912E-02    5.791196E-02    5.791312E-02
   8     1.045438E-02    5.003456E-06   -9.160905E-07   -4.381247E-06   -1.798283E-05   -6.014309E-05   -1.352895E-04   -5.717478E-05    5.741848E-03    8.748247E-03
         9.892650E-03    1.020378E-02    1.027578E-02    1.029040E-02
   9     1.506041E-03   -1.230824E-04   -1.776838E-03   -8.027742E-03   -3.066545E-02   -9.396160E-02   -0.191283       -9.308461E-02   -2.507786E-02   -4.785587E-03
         3.634913E-04    1.517457E-03    1.753773E-03    1.798085E-03
  10     2.478836E-04   -4.468428E-04   -3.369145E-03   -1.742508E-02   -7.808279E-02   -0.293051       -0.783444       -0.292792       -7.716713E-02   -1.675075E-02
        -2.862387E-03   -2.221126E-05    5.201427E-04    6.191294E-04
  11     7.550515E-04    7.111577E-06   -4.523424E-03   -2.972063E-02   -0.159847       -0.777514        -3.42341       -0.777264       -0.159310       -2.901174E-02
        -3.650417E-03    1.039725E-03    1.915363E-03    2.094668E-03
  12     4.934356E-03    4.721085E-03    2.390953E-03   -1.081543E-02   -7.000073E-02   -0.282441       -0.770265       -0.281276       -6.766886E-02   -7.339789E-03
         6.978687E-03    1.032883E-02    1.132917E-02    1.172015E-02
  13     2.676355E-02    2.823805E-02    2.973047E-02    2.781205E-02    1.267730E-02   -3.668643E-02   -0.117500       -3.049836E-02    2.504618E-02    4.632625E-02
         5.425743E-02    5.832855E-02    6.116733E-02    6.290734E-02
  14     0.132894        0.141856        0.154938        0.168507        0.179384        0.183918        0.185800        0.214848        0.241220        0.261128    
         0.277832        0.293108        0.306615        0.315668    
  15     0.602226        0.646800        0.710123        0.778844        0.848320        0.917012        0.985705         1.05860         1.13143         1.20311    
          1.27387         1.34301         1.40644         1.45104    
  16      2.41092         2.60981         2.87563         3.15817         3.44417         3.73069         4.01738         4.30471         4.59206         4.87912    
          5.16537         5.44800         5.71384         5.91275    
  17      8.04209         8.81505         9.75133         10.7190         11.6921         12.6662         13.6405         14.6149         15.5892         16.5634    
          17.5366         18.5043         19.4406         20.2135    
  18      20.0000         22.5000         25.0000         27.5000         30.0000         32.5000         35.0000         37.5000         40.0000         42.5000    
          45.0000         47.5000         50.0000         52.5000    

 HEAD WILL BE SAVED ON UNIT 1025 AT END OF TIME STEP    1, STRESS PERIOD    5


  VOLUME BUDGET FOR ENTIRE MODEL AT END OF TIME STEP    1, STRESS PERIOD   5
  ---------------------------------------------------------------------------------------------------

     CUMULATIVE VOLUME      L**3       RATES FOR THIS TIME STEP      L**3/T          PACKAGE NAME    
     ------------------                 ------------------------                     ----------------

           IN:                                      IN:
           ---                                      ---
              STO-SS =           9.0534                STO-SS =       1.7051E-02     STORAGE                          
                 WEL =           0.5000                   WEL =       1.0000E-03     WEL-1                            
                 CHD =        2166.3234                   CHD =           3.6048     CHD-1                            

            TOTAL IN =        2175.8768              TOTAL IN =           3.6229

          OUT:                                     OUT:
          ----                                     ----
              STO-SS =        2166.4268                STO-SS =           3.6040     STORAGE                          
                 WEL =           9.4500                   WEL =       1.8900E-02     WEL-1                            
                 CHD =           0.0000                   CHD =           0.0000     CHD-1                            

           TOTAL OUT =        2175.8768             TOTAL OUT =           3.6229

            IN - OUT =       2.3761E-07              IN - OUT =       5.0571E-10

 PERCENT DISCREPANCY =           0.00     PERCENT DISCREPANCY =           0.00




         TIME SUMMARY AT END OF TIME STEP    1 IN STRESS PERIOD    5
                    SECONDS     MINUTES      HOURS       DAYS        YEARS
                    -----------------------------------------------------------
   TIME STEP LENGTH  100.00      1.6667     2.77778E-02 1.15741E-03 3.16881E-06
 STRESS PERIOD TIME  100.00      1.6667     2.77778E-02 1.15741E-03 3.16881E-06
         TOTAL TIME  500.00      8.3333     0.13889     5.78704E-03 1.58440E-05


end timestep


start timestep kper="6" kstp="1" mode="normal"


 OUTPUT CONTROL FOR STRESS PERIOD 6 IS REPEATED USING SETTINGS FROM A PREVIOUS STRESS PERIOD.


 STRESS PERIOD 6 IS TRANSIENT


 REUSING WELS FROM LAST STRESS PERIOD

 REUSING CHDS FROM LAST STRESS PERIOD
 UBDSV1 SAVING           STO-SS ON UNIT   1024 AT TIME STEP      1, STRESS PERIOD      6
 UBDSV1 SAVING     FLOW-JA-FACE ON UNIT   1024 AT TIME STEP      1, STRESS PERIOD      6
 UBDSV06 SAVING       DATA-SPDIS IN MODEL GWF-P09-MF6      PACKAGE NPF             CONNECTED TO MODEL GWF-P09-MF6      PACKAGE NPF              ON UNIT   1024 AT TIME STEP      1, STRESS PERIOD      6
 UBDSV06 SAVING              WEL IN MODEL GWF-P09-MF6      PACKAGE GWF-P09-MF6     CONNECTED TO MODEL GWF-P09-MF6      PACKAGE WEL-1            ON UNIT   1024 AT TIME STEP      1, STRESS PERIOD      6
 UBDSV06 SAVING              CHD IN MODEL GWF-P09-MF6      PACKAGE GWF-P09-MF6     CONNECTED TO MODEL GWF-P09-MF6      PACKAGE CHD-1            ON UNIT   1024 AT TIME STEP      1, STRESS PERIOD      6

 WEL PACKAGE (WEL-1) FLOW RATES   PERIOD      6   STEP        1
 -----------------------------------------------
   NUMBER   CELLID                    RATE      
 -----------------------------------------------
     1      (1,4,7)               1.00000000E-03
     2      (1,11,7)             -1.89000000E-02
 -----------------------------------------------



1
  HEAD IN LAYER   1 AT END OF TIME STEP   1 IN STRESS PERIOD    6
  ---------------------------------------------------------------------------

                1               2               3               4               5               6               7               8               9              10
               11              12              13              14
 ................................................................................................................................................................
   1      250.000         250.000         250.000         250.000         250.000         250.000         250.000         250.000         250.000         250.000    
          250.000         250.000         250.000         250.000    
   2      107.758         107.759         107.760         107.760         107.762         107.765         107.770         107.764         107.759         107.757    
          107.757         107.756         107.756         107.756    
   3      35.5549         35.5634         35.5675         35.5697         35.5743         35.5882         35.6161         35.5830         35.5593         35.5510    
          35.5488         35.5484         35.5483         35.5482    
   4      9.81154         9.86747         9.88584         9.89205         9.90191         9.93955         10.0824         9.91645         9.81827         9.79175    
          9.78598         9.78485         9.78464         9.78461    
   5      2.44785         2.80794         2.87359         2.88649         2.89386         2.90994         2.93259         2.83122         2.44344         2.38017    
          2.36983         2.36814         2.36787         2.36783    
   6     0.536001        2.231280E-03    1.939912E-03    1.947148E-03    1.952392E-03    1.967231E-03    1.998332E-03    2.250351E-03    0.533405        0.524184    
         0.521410        0.520800        0.520684        0.520664    
   7     0.109107        6.305452E-05    5.919528E-07    5.755802E-07    5.700767E-07    5.533675E-07    5.430078E-07    6.192120E-05    0.107046        0.106504    
         0.106345        0.106327        0.106330        0.106332    
   8     2.085663E-02    1.109817E-05   -1.857578E-06   -8.361017E-06   -3.202129E-05   -9.977686E-05   -2.102029E-04   -9.249473E-05    1.288457E-02    1.774532E-02
         1.973341E-02    2.031391E-02    2.045790E-02    2.048902E-02
   9     3.219187E-03   -1.592162E-04   -3.203156E-03   -1.351765E-02   -4.769418E-02   -0.134706       -0.254800       -0.133018       -3.765328E-02   -7.101955E-03
         1.291368E-03    3.326933E-03    3.776762E-03    3.867097E-03
  10     5.825723E-04   -7.391598E-04   -5.615520E-03   -2.692752E-02   -0.110481       -0.378313       -0.928100       -0.377781       -0.108693       -2.550606E-02
        -4.497982E-03    2.016484E-04    1.179599E-03    1.372236E-03
  11     1.538305E-03    2.523705E-04   -6.832239E-03   -4.256250E-02   -0.208792       -0.918404        -3.68289       -0.917899       -0.207711       -4.112968E-02
        -5.075186E-03    2.316772E-03    3.841674E-03    4.179296E-03
  12     9.093769E-03    8.706476E-03    4.933094E-03   -1.482041E-02   -9.577986E-02   -0.359454       -0.905319       -0.357311       -9.149286E-02   -8.437405E-03
         1.334415E-02    1.896279E-02    2.075964E-02    2.146666E-02
  13     4.525506E-02    4.758460E-02    4.992510E-02    4.695675E-02    2.505492E-02   -4.078429E-02   -0.137864       -3.037376E-02    4.585998E-02    7.808227E-02
         9.111137E-02    9.800561E-02    0.102746        0.105584    
  14     0.204538        0.217704        0.237232        0.257550        0.273800        0.281324        0.286867        0.328665        0.368431        0.399236    
         0.425040        0.448382        0.468718        0.482068    
  15     0.836708        0.896035        0.982048         1.07630         1.17181         1.26625         1.36100         1.46190         1.56299         1.66235    
          1.76013         1.85518         1.94142         2.00080    
  16      3.00034         3.23856         3.56342         3.91185         4.26557         4.62017         4.97510         5.33107         5.68711         6.04267    
          6.39687         6.74548         7.07041         7.30864    
  17      8.92454         9.75998         10.7874         11.8553         12.9310         14.0082         15.0856         16.1632         17.2409         18.3182    
          19.3940         20.4619         21.4894         22.3248    
  18      20.0000         22.5000         25.0000         27.5000         30.0000         32.5000         35.0000         37.5000         40.0000         42.5000    
          45.0000         47.5000         50.0000         52.5000    

 HEAD WILL BE SAVED ON UNIT 1025 AT END OF TIME STEP    1, STRESS PERIOD    6


  VOLUME BUDGET FOR ENTIRE MODEL AT END OF TIME STEP    1, STRESS PERIOD   6
  ---------------------------------------------------------------------------------------------------

     CUMULATIVE VOLUME      L**3       RATES FOR THIS TIME STEP      L**3/T          PACKAGE NAME    
     ------------------                 ------------------------                     ----------------

           IN:                                      IN:
           ---                                      ---
              STO-SS =          10.6722                STO-SS =       1.6188E-02     STORAGE                          
                 WEL =           0.6000                   WEL =       1.0000E-03     WEL-1                            
                 CHD =        2502.4121                   CHD =           3.3609     CHD-1                            

            TOTAL IN =        2513.6843              TOTAL IN =           3.3781

          OUT:                                     OUT:
          ----                                     ----
              STO-SS =        2502.3443                STO-SS =           3.3592     STORAGE                          
                 WEL =          11.3400                   WEL =       1.8900E-02     WEL-1                            
                 CHD =           0.0000                   CHD =           0.0000     CHD-1                            

           TOTAL OUT =        2513.6843             TOTAL OUT =           3.3781

            IN - OUT =       2.8659E-07              IN - OUT =       4.8986E-10

 PERCENT DISCREPANCY =           0.00     PERCENT DISCREPANCY =           0.00




         TIME SUMMARY AT END OF TIME STEP    1 IN STRESS PERIOD    6
                    SECONDS     MINUTES      HOURS       DAYS        YEARS
                    -----------------------------------------------------------
   TIME STEP LENGTH  100.00      1.6667     2.77778E-02 1.15741E-03 3.16881E-06
 STRESS PERIOD TIME  100.00      1.6667     2.77778E-02 1.15741E-03 3.16881E-06
         TOTAL TIME  600.00      10.000     0.16667     6.94444E-03 1.90129E-05


end timestep


start timestep kper="7" kstp="1" mode="normal"


 OUTPUT CONTROL FOR STRESS PERIOD 7 IS REPEATED USING SETTINGS FROM A PREVIOUS STRESS PERIOD.


 STRESS PERIOD 7 IS TRANSIENT


 REUSING WELS FROM LAST STRESS PERIOD

 REUSING CHDS FROM LAST STRESS PERIOD
 UBDSV1 SAVING           STO-SS ON UNIT   1024 AT TIME STEP      1, STRESS PERIOD      7
 UBDSV1 SAVING     FLOW-JA-FACE ON UNIT   1024 AT TIME STEP      1, STRESS PERIOD      7
 UBDSV06 SAVING       DATA-SPDIS IN MODEL GWF-P09-MF6      PACKAGE NPF             CONNECTED TO MODEL GWF-P09-MF6      PACKAGE NPF              ON UNIT   1024 AT TIME STEP      1, STRESS PERIOD      7
 UBDSV06 SAVING              WEL IN MODEL GWF-P09-MF6      PACKAGE GWF-P09-MF6     CONNECTED TO MODEL GWF-P09-MF6      PACKAGE WEL-1            ON UNIT   1024 AT TIME STEP      1, STRESS PERIOD      7
 UBDSV06 SAVING              CHD IN MODEL GWF-P09-MF6      PACKAGE GWF-P09-MF6     CONNECTED TO MODEL GWF-P09-MF6      PACKAGE CHD-1            ON UNIT   1024 AT TIME STEP      1, STRESS PERIOD      7

 WEL PACKAGE (WEL-1) FLOW RATES   PERIOD      7   STEP        1
 -----------------------------------------------
   NUMBER   CELLID                    RATE      
 -----------------------------------------------
     1      (1,4,7)               1.00000000E-03
     2      (1,11,7)             -1.89000000E-02
 -----------------------------------------------



1
  HEAD IN LAYER   1 AT END OF TIME STEP   1 IN STRESS PERIOD    7
  ---------------------------------------------------------------------------

                1               2               3               4               5               6               7               8               9              10
               11              12              13              14
 ................................................................................................................................................................
   1      250.000         250.000         250.000         250.000         250.000         250.000         250.000         250.000         250.000         250.000    
          250.000         250.000         250.000         250.000    
   2      116.485         116.488         116.489         116.490         116.492         116.497         116.502         116.495         116.487         116.484    
          116.483         116.483         116.483         116.483    
   3      42.1779         42.1925         42.1998         42.2035         42.2096         42.2259         42.2552         42.2162         42.1828         42.1701    
          42.1665         42.1656         42.1654         42.1654    
   4      12.7882         12.8778         12.9092         12.9196         12.9321         12.9735         13.1173         12.9332         12.7937         12.7527    
          12.7432         12.7412         12.7408         12.7407    
   5      3.50288         4.04459         4.15091         4.17284         4.18333         4.20155         4.21884         4.07226         3.49240         3.39196    
          3.37452         3.37151         3.37099         3.37091    
   6     0.833420        3.665126E-03    3.161056E-03    3.174667E-03    3.183000E-03    3.203196E-03    3.239432E-03    3.690747E-03    0.828031        0.812508    
         0.807564        0.806416        0.806184        0.806143    
   7     0.183390        1.175210E-04    1.074234E-06    1.041085E-06    1.031248E-06    1.002686E-06    9.921346E-07    1.152679E-04    0.179649        0.178536    
         0.178160        0.178097        0.178096        0.178099    
   8     3.768182E-02    2.215655E-05   -3.396862E-06   -1.449985E-05   -5.221409E-05   -1.529153E-04   -3.047412E-04   -1.372724E-04    2.530233E-02    3.250924E-02
         3.564888E-02    3.662661E-02    3.688505E-02    3.694420E-02
   9     6.195084E-03   -1.234620E-04   -5.239538E-03   -2.085351E-02   -6.861245E-02   -0.180637       -0.321624       -0.177663       -5.195540E-02   -9.287592E-03
         3.274612E-03    6.544642E-03    7.319127E-03    7.484701E-03
  10     1.216159E-03   -1.083656E-03   -8.567454E-03   -3.851856E-02   -0.146399       -0.463642        -1.06057       -0.462649       -0.143203       -3.580673E-02
        -6.352675E-03    7.879986E-04    2.394451E-03    2.733542E-03
  11     2.835470E-03    8.029757E-04   -9.454751E-03   -5.689106E-02   -0.258494        -1.04586        -3.89305        -1.04494       -0.256522       -5.426637E-02
        -6.249308E-03    4.543536E-03    6.979019E-03    7.556939E-03
  12     1.528758E-02    1.465029E-02    9.044739E-03   -1.830517E-02   -0.122017       -0.432973        -1.02432       -0.429378       -0.114826       -7.610234E-03
         2.311273E-02    3.176339E-02    3.470573E-02    3.587308E-02
  13     7.039738E-02    7.379025E-02    7.718306E-02    7.300139E-02    4.370154E-02   -3.846412E-02   -0.149210       -2.234697E-02    7.590420E-02    0.121151    
         0.140820        0.151534        0.158821        0.163094    
  14     0.292686        0.310716        0.337821        0.366120        0.388790        0.400366        0.411313        0.467751        0.523467        0.567677    
         0.604715        0.637884        0.666380        0.684746    
  15      1.09497         1.16959         1.27969         1.40143         1.52509         1.64743         1.77062         1.90217         2.03434         2.16413    
          2.29144         2.41454         2.52506         2.59979    
  16      3.57472         3.84883         4.22919         4.64058         5.05944         5.47968         5.90051         6.32286         6.74540         7.16719    
          7.58689         7.99861         8.37908         8.65323    
  17      9.67709         10.5621         11.6644         12.8161         13.9783         15.1425         16.3071         17.4720         18.6369         19.8014    
          20.9637         22.1155         23.2178         24.1028    
  18      20.0000         22.5000         25.0000         27.5000         30.0000         32.5000         35.0000         37.5000         40.0000         42.5000    
          45.0000         47.5000         50.0000         52.5000    

 HEAD WILL BE SAVED ON UNIT 1025 AT END OF TIME STEP    1, STRESS PERIOD    7


  VOLUME BUDGET FOR ENTIRE MODEL AT END OF TIME STEP    1, STRESS PERIOD   7
  ---------------------------------------------------------------------------------------------------

     CUMULATIVE VOLUME      L**3       RATES FOR THIS TIME STEP      L**3/T          PACKAGE NAME    
     ------------------                 ------------------------                     ----------------

           IN:                                      IN:
           ---                                      ---
              STO-SS =          12.2002                STO-SS =       1.5279E-02     STORAGE                          
                 WEL =           0.7000                   WEL =       1.0000E-03     WEL-1                            
                 CHD =        2817.8781                   CHD =           3.1547     CHD-1                            

            TOTAL IN =        2830.7782              TOTAL IN =           3.1709

          OUT:                                     OUT:
          ----                                     ----
              STO-SS =        2817.5482                STO-SS =           3.1520     STORAGE                          
                 WEL =          13.2300                   WEL =       1.8900E-02     WEL-1                            
                 CHD =           0.0000                   CHD =           0.0000     CHD-1                            

           TOTAL OUT =        2830.7782             TOTAL OUT =           3.1709

            IN - OUT =       3.3151E-07              IN - OUT =       4.4915E-10

 PERCENT DISCREPANCY =           0.00     PERCENT DISCREPANCY =           0.00




         TIME SUMMARY AT END OF TIME STEP    1 IN STRESS PERIOD    7
                    SECONDS     MINUTES      HOURS       DAYS        YEARS
                    -----------------------------------------------------------
   TIME STEP LENGTH  100.00      1.6667     2.77778E-02 1.15741E-03 3.16881E-06
 STRESS PERIOD TIME  100.00      1.6667     2.77778E-02 1.15741E-03 3.16881E-06
         TOTAL TIME  700.00      11.667     0.19444     8.10185E-03 2.21817E-05


end timestep


start timestep kper="8" kstp="1" mode="normal"


 OUTPUT CONTROL FOR STRESS PERIOD 8 IS REPEATED USING SETTINGS FROM A PREVIOUS STRESS PERIOD.


 STRESS PERIOD 8 IS TRANSIENT


 REUSING WELS FROM LAST STRESS PERIOD

 REUSING CHDS FROM LAST STRESS PERIOD
 UBDSV1 SAVING           STO-SS ON UNIT   1024 AT TIME STEP      1, STRESS PERIOD      8
 UBDSV1 SAVING     FLOW-JA-FACE ON UNIT   1024 AT TIME STEP      1, STRESS PERIOD      8
 UBDSV06 SAVING       DATA-SPDIS IN MODEL GWF-P09-MF6      PACKAGE NPF             CONNECTED TO MODEL GWF-P09-MF6      PACKAGE NPF              ON UNIT   1024 AT TIME STEP      1, STRESS PERIOD      8
 UBDSV06 SAVING              WEL IN MODEL GWF-P09-MF6      PACKAGE GWF-P09-MF6     CONNECTED TO MODEL GWF-P09-MF6      PACKAGE WEL-1            ON UNIT   1024 AT TIME STEP      1, STRESS PERIOD      8
 UBDSV06 SAVING              CHD IN MODEL GWF-P09-MF6      PACKAGE GWF-P09-MF6     CONNECTED TO MODEL GWF-P09-MF6      PACKAGE CHD-1            ON UNIT   1024 AT TIME STEP      1, STRESS PERIOD      8

 WEL PACKAGE (WEL-1) FLOW RATES   PERIOD      8   STEP        1
 -----------------------------------------------
   NUMBER   CELLID                    RATE      
 -----------------------------------------------
     1      (1,4,7)               1.00000000E-03
     2      (1,11,7)             -1.89000000E-02
 -----------------------------------------------



1
  HEAD IN LAYER   1 AT END OF TIME STEP   1 IN STRESS PERIOD    8
  ---------------------------------------------------------------------------

                1               2               3               4               5               6               7               8               9              10
               11              12              13              14
 ................................................................................................................................................................
   1      250.000         250.000         250.000         250.000         250.000         250.000         250.000         250.000         250.000         250.000    
          250.000         250.000         250.000         250.000    
   2      123.946         123.950         123.952         123.954         123.957         123.962         123.968         123.958         123.948         123.943    
          123.942         123.941         123.941         123.941    
   3      48.5037         48.5268         48.5389         48.5447         48.5525         48.5708         48.6003         48.5542         48.5084         48.4896    
          48.4839         48.4824         48.4821         48.4820    
   4      15.9539         16.0880         16.1377         16.1541         16.1696         16.2137         16.3555         16.1487         15.9562         15.8956    
          15.8805         15.8772         15.8765         15.8764    
   5      4.74716         5.51262         5.67317         5.70792         5.72231         5.74168         5.74914         5.54371         4.72703         4.57769    
          4.55026         4.54524         4.54433         4.54418    
   6      1.21651        5.642646E-03    4.829825E-03    4.853534E-03    4.866104E-03    4.891992E-03    4.930511E-03    5.674481E-03     1.20657         1.18223    
          1.17406         1.17206         1.17164         1.17156    
   7     0.287234        2.028016E-04    1.814387E-06    1.752544E-06    1.736261E-06    1.690738E-06    1.685603E-06    1.986656E-04    0.280930        0.278881    
         0.278110        0.277953        0.277939        0.277941    
   8     6.303710E-02    4.073770E-05   -5.730229E-06   -2.335758E-05   -7.960634E-05   -2.207285E-04   -4.194546E-04   -1.903400E-04    4.501584E-02    5.502323E-02
         5.963066E-02    6.115149E-02    6.157769E-02    6.168056E-02
   9     1.098294E-02    7.922526E-05   -7.946941E-03   -3.009321E-02   -9.308882E-02   -0.230565       -0.390356       -0.225669       -6.707355E-02   -1.069378E-02
         6.936666E-03    1.182733E-02    1.306131E-02    1.334065E-02
  10     2.314585E-03   -1.423167E-03   -1.221043E-02   -5.198846E-02   -0.184849       -0.547430        -1.18191       -0.545711       -0.179513       -4.720134E-02
        -8.173252E-03    1.998972E-03    4.456092E-03    5.008377E-03
  11     4.835983E-03    1.820625E-03   -1.219807E-02   -7.218488E-02   -0.307741        -1.16084        -4.06736        -1.15927       -0.304404       -6.772938E-02
        -6.778584E-03    8.101283E-03    1.174242E-02    1.266147E-02
  12     2.394474E-02    2.297175E-02    1.517107E-02   -2.056957E-02   -0.147190       -0.500846        -1.12779       -0.495224       -0.135949       -3.870535E-03
         3.709627E-02    4.957902E-02    5.406699E-02    5.586413E-02
  13     0.102759        0.107406        0.112043        0.106564        6.961470E-02   -2.802738E-02   -0.149748       -4.606919E-03    0.116398        0.176471    
         0.204323        0.219917        0.230434        0.236488    
  14     0.396476        0.419903        0.455529        0.492861        0.522915        0.539675        0.557787        0.630499        0.704402        0.764343    
         0.814632        0.859264        0.897104        0.921097    
  15      1.37090         1.46096         1.59587         1.74628         1.89945         2.05114         2.20445         2.36854         2.53387         2.69609    
          2.85473         3.00730         3.14292         3.23316    
  16      4.12728         4.43389         4.86574         5.33647         5.81716         6.29985         6.78351         7.26929         7.75539         8.24043    
          8.72246         9.19376         9.62580         9.93247    
  17      10.3258         11.2507         12.4152         13.6378         14.8734         16.1119         17.3510         18.5905         19.8301         21.0690    
          22.3049         23.5276         24.6921         25.6171    
  18      20.0000         22.5000         25.0000         27.5000         30.0000         32.5000         35.0000         37.5000         40.0000         42.5000    
          45.0000         47.5000         50.0000         52.5000    

 HEAD WILL BE SAVED ON UNIT 1025 AT END OF TIME STEP    1, STRESS PERIOD    8


  VOLUME BUDGET FOR ENTIRE MODEL AT END OF TIME STEP    1, STRESS PERIOD   8
  ---------------------------------------------------------------------------------------------------

     CUMULATIVE VOLUME      L**3       RATES FOR THIS TIME STEP      L**3/T          PACKAGE NAME    
     ------------------                 ------------------------                     ----------------

           IN:                                      IN:
           ---                                      ---
              STO-SS =          13.6327                STO-SS =       1.4326E-02     STORAGE                          
                 WEL =           0.8000                   WEL =       1.0000E-03     WEL-1                            
                 CHD =        3115.7144                   CHD =           2.9784     CHD-1                            

            TOTAL IN =        3130.1472              TOTAL IN =           2.9937

          OUT:                                     OUT:
          ----                                     ----
              STO-SS =        3115.0272                STO-SS =           2.9748     STORAGE                          
                 WEL =          15.1200                   WEL =       1.8900E-02     WEL-1                            
                 CHD =           0.0000                   CHD =           0.0000     CHD-1                            

           TOTAL OUT =        3130.1472             TOTAL OUT =           2.9937

            IN - OUT =       3.7553E-07              IN - OUT =       4.4022E-10

 PERCENT DISCREPANCY =           0.00     PERCENT DISCREPANCY =           0.00




         TIME SUMMARY AT END OF TIME STEP    1 IN STRESS PERIOD    8
                    SECONDS     MINUTES      HOURS       DAYS        YEARS
                    -----------------------------------------------------------
   TIME STEP LENGTH  100.00      1.6667     2.77778E-02 1.15741E-03 3.16881E-06
 STRESS PERIOD TIME  100.00      1.6667     2.77778E-02 1.15741E-03 3.16881E-06
         TOTAL TIME  800.00      13.333     0.22222     9.25926E-03 2.53505E-05


end timestep


start timestep kper="9" kstp="1" mode="normal"


 OUTPUT CONTROL FOR STRESS PERIOD 9 IS REPEATED USING SETTINGS FROM A PREVIOUS STRESS PERIOD.


 STRESS PERIOD 9 IS TRANSIENT


 REUSING WELS FROM LAST STRESS PERIOD

 REUSING CHDS FROM LAST STRESS PERIOD
 UBDSV1 SAVING           STO-SS ON UNIT   1024 AT TIME STEP      1, STRESS PERIOD      9
 UBDSV1 SAVING     FLOW-JA-FACE ON UNIT   1024 AT TIME STEP      1, STRESS PERIOD      9
 UBDSV06 SAVING       DATA-SPDIS IN MODEL GWF-P09-MF6      PACKAGE NPF             CONNECTED TO MODEL GWF-P09-MF6      PACKAGE NPF              ON UNIT   1024 AT TIME STEP      1, STRESS PERIOD      9
 UBDSV06 SAVING              WEL IN MODEL GWF-P09-MF6      PACKAGE GWF-P09-MF6     CONNECTED TO MODEL GWF-P09-MF6      PACKAGE WEL-1            ON UNIT   1024 AT TIME STEP      1, STRESS PERIOD      9
 UBDSV06 SAVING              CHD IN MODEL GWF-P09-MF6      PACKAGE GWF-P09-MF6     CONNECTED TO MODEL GWF-P09-MF6      PACKAGE CHD-1            ON UNIT   1024 AT TIME STEP      1, STRESS PERIOD      9

 WEL PACKAGE (WEL-1) FLOW RATES   PERIOD      9   STEP        1
 -----------------------------------------------
   NUMBER   CELLID                    RATE      
 -----------------------------------------------
     1      (1,4,7)               1.00000000E-03
     2      (1,11,7)             -1.89000000E-02
 -----------------------------------------------



1
  HEAD IN LAYER   1 AT END OF TIME STEP   1 IN STRESS PERIOD    9
  ---------------------------------------------------------------------------

                1               2               3               4               5               6               7               8               9              10
               11              12              13              14
 ................................................................................................................................................................
   1      250.000         250.000         250.000         250.000         250.000         250.000         250.000         250.000         250.000         250.000    
          250.000         250.000         250.000         250.000    
   2      130.391         130.397         130.401         130.404         130.407         130.413         130.419         130.407         130.393         130.386    
          130.383         130.383         130.382         130.382    
   3      54.4993         54.5338         54.5527         54.5615         54.5711         54.5909         54.6195         54.5645         54.5029         54.4758    
          54.4672         54.4648         54.4643         54.4641    
   4      19.2494         19.4394         19.5135         19.5381         19.5571         19.6029         19.7393         19.5041         19.2457         19.1594    
          19.1369         19.1317         19.1306         19.1303    
   5      6.16726         7.19705         7.42647         7.47847         7.49768         7.51698         7.50953         7.23020         6.13305         5.92224    
          5.88144         5.87357         5.87208         5.87180    
   6      1.68966        8.253617E-03    7.014050E-03    7.052866E-03    7.071088E-03    7.102647E-03    7.139118E-03    8.290250E-03     1.67284         1.63680    
          1.62410         1.62083         1.62011         1.61997    
   7     0.425379        3.290630E-04    2.894131E-06    2.786096E-06    2.760752E-06    2.692066E-06    2.702422E-06    3.219410E-04    0.415364        0.411902    
         0.410479        0.410147        0.410101        0.410101    
   8     9.916254E-02    7.010005E-05   -9.058896E-06   -3.548510E-05   -1.151157E-04   -3.040682E-04   -5.545729E-04   -2.495136E-04    7.421027E-02    8.741502E-02
         9.379477E-02    9.601443E-02    9.667093E-02    9.683737E-02
   9     1.822844E-02    5.881807E-04   -1.134400E-02   -4.120728E-02   -0.120692       -0.283409       -0.459909       -0.275768       -8.193659E-02   -1.049217E-02
         1.304903E-02    1.996383E-02    2.181251E-02    2.225351E-02
  10     4.089980E-03   -1.665983E-03   -1.648206E-02   -6.706860E-02   -0.224971       -0.628700        -1.29333       -0.625894       -0.216531       -5.912835E-02
        -9.602428E-03    4.179455E-03    7.732180E-03    8.577766E-03
  11     7.752222E-03    3.492645E-03   -1.482951E-02   -8.792169E-02   -0.355623        -1.26445        -4.21471        -1.26193       -0.350307       -8.080356E-02
        -6.205759E-03    1.341722E-02    1.858483E-02    1.996329E-02
  12     3.545857E-02    3.405728E-02    2.374065E-02   -2.092859E-02   -0.169995       -0.561662        -1.21653       -0.553349       -0.153377        3.727916E-03
         5.605194E-02    7.317502E-02    7.964734E-02    8.226473E-02
  13     0.142679        0.148744        0.154802        0.148026        0.103517       -8.275828E-03   -0.138373        2.410497E-02    0.168182        0.244590    
         0.282111        0.303665        0.318109        0.326292    
  14     0.514662        0.543893        0.588782        0.636010        0.674317        0.697415        0.724377        0.814749        0.908728        0.986479    
          1.05187         1.10943         1.15764         1.18775    
  15      1.65922         1.76456         1.92445         2.10408         2.28748         2.46939         2.65391         2.85178         3.05170         3.24776    
          3.43891         3.62175         3.78276         3.88841    
  16      4.65448         4.99037         5.46961         5.99577         6.53464         7.07625         7.61933         8.16522         8.71163         9.25660    
          9.79745         10.3245         10.8041         11.1401    
  17      10.8905         11.8482         13.0647         14.3477         15.6466         16.9490         18.2524         19.5563         20.8604         22.1635    
          23.4628         24.7460         25.9627         26.9204    
  18      20.0000         22.5000         25.0000         27.5000         30.0000         32.5000         35.0000         37.5000         40.0000         42.5000    
          45.0000         47.5000         50.0000         52.5000    

 HEAD WILL BE SAVED ON UNIT 1025 AT END OF TIME STEP    1, STRESS PERIOD    9


  VOLUME BUDGET FOR ENTIRE MODEL AT END OF TIME STEP    1, STRESS PERIOD   9
  ---------------------------------------------------------------------------------------------------

     CUMULATIVE VOLUME      L**3       RATES FOR THIS TIME STEP      L**3/T          PACKAGE NAME    
     ------------------                 ------------------------                     ----------------

           IN:                                      IN:
           ---                                      ---
              STO-SS =          14.9726                STO-SS =       1.3399E-02     STORAGE                          
                 WEL =           0.9000                   WEL =       1.0000E-03     WEL-1                            
                 CHD =        3398.3217                   CHD =           2.8261     CHD-1                            

            TOTAL IN =        3414.1943              TOTAL IN =           2.8405

          OUT:                                     OUT:
          ----                                     ----
              STO-SS =        3397.1843                STO-SS =           2.8216     STORAGE                          
                 WEL =          17.0100                   WEL =       1.8900E-02     WEL-1                            
                 CHD =           0.0000                   CHD =           0.0000     CHD-1                            

           TOTAL OUT =        3414.1943             TOTAL OUT =           2.8405

            IN - OUT =       4.1898E-07              IN - OUT =       4.3448E-10

 PERCENT DISCREPANCY =           0.00     PERCENT DISCREPANCY =           0.00




         TIME SUMMARY AT END OF TIME STEP    1 IN STRESS PERIOD    9
                    SECONDS     MINUTES      HOURS       DAYS        YEARS
                    -----------------------------------------------------------
   TIME STEP LENGTH  100.00      1.6667     2.77778E-02 1.15741E-03 3.16881E-06
 STRESS PERIOD TIME  100.00      1.6667     2.77778E-02 1.15741E-03 3.16881E-06
         TOTAL TIME  900.00      15.000     0.25000     1.04167E-02 2.85193E-05


end timestep


start timestep kper="10" kstp="1" mode="normal"


 OUTPUT CONTROL FOR STRESS PERIOD 10 IS REPEATED USING SETTINGS FROM A PREVIOUS STRESS PERIOD.


 STRESS PERIOD 10 IS TRANSIENT


 REUSING WELS FROM LAST STRESS PERIOD

 REUSING CHDS FROM LAST STRESS PERIOD
 UBDSV1 SAVING           STO-SS ON UNIT   1024 AT TIME STEP      1, STRESS PERIOD     10
 UBDSV1 SAVING     FLOW-JA-FACE ON UNIT   1024 AT TIME STEP      1, STRESS PERIOD     10
 UBDSV06 SAVING       DATA-SPDIS IN MODEL GWF-P09-MF6      PACKAGE NPF             CONNECTED TO MODEL GWF-P09-MF6      PACKAGE NPF              ON UNIT   1024 AT TIME STEP      1, STRESS PERIOD     10
 UBDSV06 SAVING              WEL IN MODEL GWF-P09-MF6      PACKAGE GWF-P09-MF6     CONNECTED TO MODEL GWF-P09-MF6      PACKAGE WEL-1            ON UNIT   1024 AT TIME STEP      1, STRESS PERIOD     10
 UBDSV06 SAVING              CHD IN MODEL GWF-P09-MF6      PACKAGE GWF-P09-MF6     CONNECTED TO MODEL GWF-P09-MF6      PACKAGE CHD-1            ON UNIT   1024 AT TIME STEP      1, STRESS PERIOD     10

 WEL PACKAGE (WEL-1) FLOW RATES   PERIOD     10   STEP        1
 -----------------------------------------------
   NUMBER   CELLID                    RATE      
 -----------------------------------------------
     1      (1,4,7)               1.00000000E-03
     2      (1,11,7)             -1.89000000E-02
 -----------------------------------------------



1
  HEAD IN LAYER   1 AT END OF TIME STEP   1 IN STRESS PERIOD   10
  ---------------------------------------------------------------------------

                1               2               3               4               5               6               7               8               9              10
               11              12              13              14
 ................................................................................................................................................................
   1      250.000         250.000         250.000         250.000         250.000         250.000         250.000         250.000         250.000         250.000    
          250.000         250.000         250.000         250.000    
   2      136.013         136.022         136.028         136.032         136.036         136.042         136.048         136.033         136.014         136.004    
          136.000         135.999         135.999         135.999    
   3      60.1559         60.2049         60.2329         60.2457         60.2574         60.2783         60.3044         60.2382         60.1568         60.1191    
          60.1065         60.1029         60.1020         60.1018    
   4      22.6261         22.8834         22.9889         23.0243         23.0472         23.0936         23.2214         22.9506         22.6129         22.4943    
          22.4619         22.4540         22.4523         22.4519    
   5      7.74717         9.07904         9.39254         9.46681         9.49188         9.50970         9.48169         9.11253         7.69364         7.40836    
          7.35041         7.33867         7.33632         7.33588    
   6      2.25491        1.158281E-02    9.776161E-03    9.836542E-03    9.862142E-03    9.898930E-03    9.927386E-03    1.162145E-02     2.22831         2.17734    
          2.15856         2.15351         2.15234         2.15210    
   7     0.601978        5.076997E-04    4.405997E-06    4.227201E-06    4.189674E-06    4.090506E-06    4.132341E-06    4.960638E-04    0.586816        0.581348    
         0.578927        0.578301        0.578193        0.578184    
   8     0.148343        1.142281E-04   -1.357531E-05   -5.140266E-05   -1.595181E-04   -4.035081E-04   -7.100738E-04   -3.116067E-04    0.115139        0.131870    
         0.140298        0.143373        0.144329        0.144583    
   9     2.865828E-02    1.590132E-03   -1.540320E-02   -5.409249E-02   -0.150943       -0.338227       -0.529427       -0.326805       -9.537170E-02   -7.706855E-03
         2.251359E-02    3.185906E-02    3.449365E-02    3.515305E-02
  10     6.800273E-03   -1.684235E-03   -2.127668E-02   -8.345631E-02   -0.266036       -0.706883        -1.39594       -0.702520       -0.253261       -7.094331E-02
        -1.018605E-02    7.756135E-03    1.266543E-02    1.389655E-02
  11     1.181410E-02    6.025510E-03   -1.709093E-02   -0.103599       -0.401454        -1.35774        -4.34104        -1.35392       -0.393390       -9.277554E-02
        -4.030039E-03    2.095123E-02    2.798382E-02    2.995519E-02
  12     5.017339E-02    4.824672E-02    3.514444E-02   -1.875432E-02   -0.189368       -0.614543        -1.29134       -0.602793       -0.165887        1.603975E-02
         8.065085E-02    0.103208        0.112129        0.115773    
  13     0.190289        0.197908        0.205543        0.197556        0.145854        2.152382E-02   -0.114536        6.453589E-02    0.231725        0.325697    
         0.374271        0.402850        0.421911        0.432563    
  14     0.645779        0.681098        0.735801        0.793601        0.840928        0.871489        0.908853         1.01804         1.13364         1.23100    
          1.31313         1.38491         1.44433         1.48097    
  15      1.95548         2.07574         2.26038         2.46925         2.68310         2.89561         3.11195         3.34432         3.57970         3.81047    
          4.03480         4.24824         4.43454         4.55528    
  16      5.15485         5.51709         6.03976         6.61739         7.21064         7.80756         8.40654         9.00912         9.61247         10.2140    
          10.8100         11.3890         11.9122         12.2746    
  17      11.3867         12.3714         13.6322         14.9671         16.3207         17.6788         19.0382         20.3984         21.7586         23.1177    
          24.4721         25.8073         27.0681         28.0530    
  18      20.0000         22.5000         25.0000         27.5000         30.0000         32.5000         35.0000         37.5000         40.0000         42.5000    
          45.0000         47.5000         50.0000         52.5000    

 HEAD WILL BE SAVED ON UNIT 1025 AT END OF TIME STEP    1, STRESS PERIOD   10


  VOLUME BUDGET FOR ENTIRE MODEL AT END OF TIME STEP    1, STRESS PERIOD  10
  ---------------------------------------------------------------------------------------------------

     CUMULATIVE VOLUME      L**3       RATES FOR THIS TIME STEP      L**3/T          PACKAGE NAME    
     ------------------                 ------------------------                     ----------------

           IN:                                      IN:
           ---                                      ---
              STO-SS =          16.2173                STO-SS =       1.2446E-02     STORAGE                          
                 WEL =           1.0000                   WEL =       1.0000E-03     WEL-1                            
                 CHD =        3667.6452                   CHD =           2.6932     CHD-1                            

            TOTAL IN =        3684.8625              TOTAL IN =           2.7067

          OUT:                                     OUT:
          ----                                     ----
              STO-SS =        3665.9625                STO-SS =           2.6878     STORAGE                          
                 WEL =          18.9000                   WEL =       1.8900E-02     WEL-1                            
                 CHD =           0.0000                   CHD =           0.0000     CHD-1                            

           TOTAL OUT =        3684.8625             TOTAL OUT =           2.7067

            IN - OUT =       4.6021E-07              IN - OUT =       4.1236E-10

 PERCENT DISCREPANCY =           0.00     PERCENT DISCREPANCY =           0.00




         TIME SUMMARY AT END OF TIME STEP    1 IN STRESS PERIOD   10
                    SECONDS     MINUTES      HOURS       DAYS        YEARS
                    -----------------------------------------------------------
   TIME STEP LENGTH  100.00      1.6667     2.77778E-02 1.15741E-03 3.16881E-06
 STRESS PERIOD TIME  100.00      1.6667     2.77778E-02 1.15741E-03 3.16881E-06
         TOTAL TIME  1000.0      16.667     0.27778     1.15741E-02 3.16881E-05


end timestep


start timestep kper="11" kstp="1" mode="normal"


 OUTPUT CONTROL FOR STRESS PERIOD 11 IS REPEATED USING SETTINGS FROM A PREVIOUS STRESS PERIOD.


 STRESS PERIOD 11 IS TRANSIENT


 REUSING WELS FROM LAST STRESS PERIOD

 REUSING CHDS FROM LAST STRESS PERIOD
 UBDSV1 SAVING           STO-SS ON UNIT   1024 AT TIME STEP      1, STRESS PERIOD     11
 UBDSV1 SAVING     FLOW-JA-FACE ON UNIT   1024 AT TIME STEP      1, STRESS PERIOD     11
 UBDSV06 SAVING       DATA-SPDIS IN MODEL GWF-P09-MF6      PACKAGE NPF             CONNECTED TO MODEL GWF-P09-MF6      PACKAGE NPF              ON UNIT   1024 AT TIME STEP      1, STRESS PERIOD     11
 UBDSV06 SAVING              WEL IN MODEL GWF-P09-MF6      PACKAGE GWF-P09-MF6     CONNECTED TO MODEL GWF-P09-MF6      PACKAGE WEL-1            ON UNIT   1024 AT TIME STEP      1, STRESS PERIOD     11
 UBDSV06 SAVING              CHD IN MODEL GWF-P09-MF6      PACKAGE GWF-P09-MF6     CONNECTED TO MODEL GWF-P09-MF6      PACKAGE CHD-1            ON UNIT   1024 AT TIME STEP      1, STRESS PERIOD     11

 WEL PACKAGE (WEL-1) FLOW RATES   PERIOD     11   STEP        1
 -----------------------------------------------
   NUMBER   CELLID                    RATE      
 -----------------------------------------------
     1      (1,4,7)               1.00000000E-03
     2      (1,11,7)             -1.89000000E-02
 -----------------------------------------------



1
  HEAD IN LAYER   1 AT END OF TIME STEP   1 IN STRESS PERIOD   11
  ---------------------------------------------------------------------------

                1               2               3               4               5               6               7               8               9              10
               11              12              13              14
 ................................................................................................................................................................
   1      250.000         250.000         250.000         250.000         250.000         250.000         250.000         250.000         250.000         250.000    
          250.000         250.000         250.000         250.000    
   2      140.961         140.974         140.983         140.988         140.993         141.000         141.005         140.986         140.962         140.948    
          140.942         140.940         140.940         140.940    
   3      65.4792         65.5460         65.5857         65.6039         65.6179         65.6393         65.6613         65.5811         65.4755         65.4244    
          65.4065         65.4013         65.3999         65.3996    
   4      26.0450         26.3811         26.5252         26.5745         26.6021         26.6478         26.7632         26.4492         26.0182         25.8602    
          25.8151         25.8036         25.8010         25.8004    
   5      9.46968         11.1377         11.5506         11.6526         11.6847         11.6994         11.6447         11.1694         9.39088         9.01807    
          8.93883         8.92202         8.91850         8.91781    
   6      2.91229        1.570876E-02    1.317244E-02    1.326242E-02    1.329747E-02    1.333858E-02    1.335127E-02    1.574500E-02     2.87238         2.80305    
          2.77640         2.76893         2.76711         2.76673    
   7     0.820497        7.511297E-04    6.452568E-06    6.169745E-06    6.116445E-06    5.978328E-06    6.075096E-06    7.329373E-04    0.798446        0.790269    
         0.786410        0.785323        0.785107        0.785079    
   8     0.212827        1.778352E-04   -1.944930E-05   -7.158245E-05   -2.134431E-04   -5.193839E-04   -8.857329E-04   -3.724711E-04    0.170032        0.190551    
         0.201262        0.205341        0.206668        0.207036    
   9     4.306083E-02    3.319398E-03   -2.005031E-02   -6.858652E-02   -0.183345       -0.394211       -0.598227       -0.377739       -0.106152       -1.250857E-03
         3.633786E-02    4.851197E-02    5.211484E-02    5.305726E-02
  10     1.074634E-02   -1.314259E-03   -2.645104E-02   -0.100832       -0.307430       -0.781661        -1.49068       -0.775143       -0.288790       -8.194098E-02
        -9.384107E-03    1.323216E-02    1.976858E-02    2.148788E-02
  11     1.726360E-02    9.638279E-03   -1.871130E-02   -0.118747       -0.444709        -1.44164        -4.45041        -1.43606       -0.432961       -0.102950    
         2.750897E-04    3.118303E-02    4.042909E-02    4.313938E-02
  12     6.837694E-02    6.582505E-02    4.972145E-02   -1.350175E-02   -0.204474       -0.658983        -1.35302       -0.642983       -0.172511        3.379828E-02
         0.111459        0.140211        0.152057        0.156946    
  13     0.245540        0.254820        0.264168        0.255127        0.196814        6.170459E-02   -7.812317E-02    0.116994        0.307161        0.419674    
         0.480560        0.517184        0.541530        0.554972    
  14     0.788262        0.829845        0.894734        0.963608         1.02062         1.05971         1.10886         1.23781         1.37627         1.49474    
          1.59501         1.68210         1.75343         1.79690    
  15      2.25605         2.39071         2.59956         2.83733         3.08144         3.32457         3.57295         3.84009         4.11135         4.37727    
          4.63504         4.87903         5.09023         5.22561    
  16      5.62827         6.01421         6.57654         7.20178         7.84572         8.49435         9.14577         9.80165         10.4586         11.1132    
          11.7610         12.3882         12.9512         13.3374    
  17      11.8264         12.8339         14.1323         15.5123         16.9138         18.3207         19.7292         21.1389         22.5487         23.9570    
          25.3594         26.7399         28.0385         29.0461    
  18      20.0000         22.5000         25.0000         27.5000         30.0000         32.5000         35.0000         37.5000         40.0000         42.5000    
          45.0000         47.5000         50.0000         52.5000    

 HEAD WILL BE SAVED ON UNIT 1025 AT END OF TIME STEP    1, STRESS PERIOD   11


  VOLUME BUDGET FOR ENTIRE MODEL AT END OF TIME STEP    1, STRESS PERIOD  11
  ---------------------------------------------------------------------------------------------------

     CUMULATIVE VOLUME      L**3       RATES FOR THIS TIME STEP      L**3/T          PACKAGE NAME    
     ------------------                 ------------------------                     ----------------

           IN:                                      IN:
           ---                                      ---
              STO-SS =          17.3616                STO-SS =       1.1443E-02     STORAGE                          
                 WEL =           1.1000                   WEL =       1.0000E-03     WEL-1                            
                 CHD =        3925.2770                   CHD =           2.5763     CHD-1                            

            TOTAL IN =        3943.7386              TOTAL IN =           2.5888

          OUT:                                     OUT:
          ----                                     ----
              STO-SS =        3922.9486                STO-SS =           2.5699     STORAGE                          
                 WEL =          20.7900                   WEL =       1.8900E-02     WEL-1                            
                 CHD =           0.0000                   CHD =           0.0000     CHD-1                            

           TOTAL OUT =        3943.7386             TOTAL OUT =           2.5888

            IN - OUT =       4.9868E-07              IN - OUT =       3.8471E-10

 PERCENT DISCREPANCY =           0.00     PERCENT DISCREPANCY =           0.00




         TIME SUMMARY AT END OF TIME STEP    1 IN STRESS PERIOD   11
                    SECONDS     MINUTES      HOURS       DAYS        YEARS
                    -----------------------------------------------------------
   TIME STEP LENGTH  100.00      1.6667     2.77778E-02 1.15741E-03 3.16881E-06
 STRESS PERIOD TIME  100.00      1.6667     2.77778E-02 1.15741E-03 3.16881E-06
         TOTAL TIME  1100.0      18.333     0.30556     1.27315E-02 3.48569E-05


end timestep


start timestep kper="12" kstp="1" mode="normal"


 OUTPUT CONTROL FOR STRESS PERIOD 12 IS REPEATED USING SETTINGS FROM A PREVIOUS STRESS PERIOD.


 STRESS PERIOD 12 IS TRANSIENT


 REUSING WELS FROM LAST STRESS PERIOD

 REUSING CHDS FROM LAST STRESS PERIOD
 UBDSV1 SAVING           STO-SS ON UNIT   1024 AT TIME STEP      1, STRESS PERIOD     12
 UBDSV1 SAVING     FLOW-JA-FACE ON UNIT   1024 AT TIME STEP      1, STRESS PERIOD     12
 UBDSV06 SAVING       DATA-SPDIS IN MODEL GWF-P09-MF6      PACKAGE NPF             CONNECTED TO MODEL GWF-P09-MF6      PACKAGE NPF              ON UNIT   1024 AT TIME STEP      1, STRESS PERIOD     12
 UBDSV06 SAVING              WEL IN MODEL GWF-P09-MF6      PACKAGE GWF-P09-MF6     CONNECTED TO MODEL GWF-P09-MF6      PACKAGE WEL-1            ON UNIT   1024 AT TIME STEP      1, STRESS PERIOD     12
 UBDSV06 SAVING              CHD IN MODEL GWF-P09-MF6      PACKAGE GWF-P09-MF6     CONNECTED TO MODEL GWF-P09-MF6      PACKAGE CHD-1            ON UNIT   1024 AT TIME STEP      1, STRESS PERIOD     12

 WEL PACKAGE (WEL-1) FLOW RATES   PERIOD     12   STEP        1
 -----------------------------------------------
   NUMBER   CELLID                    RATE      
 -----------------------------------------------
     1      (1,4,7)               1.00000000E-03
     2      (1,11,7)             -1.89000000E-02
 -----------------------------------------------



1
  HEAD IN LAYER   1 AT END OF TIME STEP   1 IN STRESS PERIOD   12
  ---------------------------------------------------------------------------

                1               2               3               4               5               6               7               8               9              10
               11              12              13              14
 ................................................................................................................................................................
   1      250.000         250.000         250.000         250.000         250.000         250.000         250.000         250.000         250.000         250.000    
          250.000         250.000         250.000         250.000    
   2      145.353         145.370         145.383         145.391         145.397         145.404         145.407         145.383         145.352         145.333    
          145.325         145.323         145.322         145.322    
   3      70.4834         70.5716         70.6259         70.6508         70.6675         70.6888         70.7050         70.6075         70.4728         70.4052    
          70.3806         70.3731         70.3711         70.3706    
   4      29.4758         29.9016         30.0918         30.1585         30.1913         30.2352         30.3343         29.9686         29.4307         29.2256    
          29.1647         29.1486         29.1447         29.1439    
   5      11.3173         13.3512         13.8786         14.0141         14.0546         14.0645         13.9766         13.3788         11.2067         10.7335    
          10.6286         10.6054         10.6003         10.5993    
   6      3.66012        2.070309E-02    1.725266E-02    1.738196E-02    1.742893E-02    1.747291E-02    1.746022E-02    2.073056E-02     3.60280         3.51150    
          3.47502         3.46436         3.46167         3.46108    
   7      1.08366        1.072576E-03    9.145648E-06    8.715116E-06    8.642019E-06    8.455316E-06    8.639581E-06    1.045177E-03     1.05267         1.04098    
          1.03515         1.03338         1.03299         1.03293    
   8     0.294756        2.663446E-04   -2.681475E-05   -9.643534E-05   -2.773771E-04   -6.518299E-04   -1.081159E-03   -4.270569E-04    0.241021        0.265525    
         0.278703        0.283918        0.285689        0.286199    
   9     6.226477E-02    6.055439E-03   -2.516624E-02   -8.448189E-02   -0.217413       -0.450678       -0.665744       -0.427632       -0.113037        1.003636E-02
         5.560608E-02    7.098956E-02    7.574946E-02    7.704597E-02
  10     1.626711E-02   -3.586269E-04   -3.183029E-02   -0.118873       -0.348640       -0.852865        -1.57831       -0.843453       -0.322278       -9.137364E-02
        -6.584319E-03    2.117830E-02    2.961624E-02    3.193474E-02
  11     2.434950E-02    1.455649E-02   -1.941725E-02   -0.132935       -0.484984        -1.51691        -4.54565        -1.50903       -0.468443       -0.110662    
         7.246462E-03    4.460038E-02    5.641154E-02    6.001625E-02
  12     9.029756E-02    8.701878E-02    6.775049E-02   -4.721495E-03   -0.214692       -0.694746        -1.40228       -0.673627       -0.172519        5.760205E-02
         0.148928        0.184592        0.199842        0.206200    
  13     0.308240        0.319254        0.330436        0.320558        0.256364        0.112274       -2.935190E-02    0.181431        0.394342        0.526153    
         0.600467        0.646090        0.676353        0.692888    
  14     0.940538        0.988467         1.06376         1.14405         1.21132         1.25990         1.32205         1.47151         1.63376         1.77458    
          1.89418         1.99748         2.08126         2.13177    
  15      2.55799         2.70645         2.93875         3.20477         3.47868         3.75215         4.03247         4.33432         4.64152         4.94268    
          5.23383         5.50803         5.74355         5.89304    
  16      6.07541         6.48268         7.08122         7.75040         8.44143         9.13832         9.83885         10.5448         11.2521         11.9567    
          12.6528         13.3245         13.9241         14.3318    
  17      12.2191         13.2459         14.5769         15.9961         17.4398         18.8898         20.3419         21.7954         23.2491         24.7010    
          26.1459         27.5659         28.8972         29.9241    
  18      20.0000         22.5000         25.0000         27.5000         30.0000         32.5000         35.0000         37.5000         40.0000         42.5000    
          45.0000         47.5000         50.0000         52.5000    

 HEAD WILL BE SAVED ON UNIT 1025 AT END OF TIME STEP    1, STRESS PERIOD   12


  VOLUME BUDGET FOR ENTIRE MODEL AT END OF TIME STEP    1, STRESS PERIOD  12
  ---------------------------------------------------------------------------------------------------

     CUMULATIVE VOLUME      L**3       RATES FOR THIS TIME STEP      L**3/T          PACKAGE NAME    
     ------------------                 ------------------------                     ----------------

           IN:                                      IN:
           ---                                      ---
              STO-SS =          18.4003                STO-SS =       1.0388E-02     STORAGE                          
                 WEL =           1.2000                   WEL =       1.0000E-03     WEL-1                            
                 CHD =        4172.5329                   CHD =           2.4726     CHD-1                            

            TOTAL IN =        4192.1333              TOTAL IN =           2.4839

          OUT:                                     OUT:
          ----                                     ----
              STO-SS =        4169.4533                STO-SS =           2.4650     STORAGE                          
                 WEL =          22.6800                   WEL =       1.8900E-02     WEL-1                            
                 CHD =           0.0000                   CHD =           0.0000     CHD-1                            

           TOTAL OUT =        4192.1333             TOTAL OUT =           2.4839

            IN - OUT =       5.3460E-07              IN - OUT =       3.5919E-10

 PERCENT DISCREPANCY =           0.00     PERCENT DISCREPANCY =           0.00




         TIME SUMMARY AT END OF TIME STEP    1 IN STRESS PERIOD   12
                    SECONDS     MINUTES      HOURS       DAYS        YEARS
                    -----------------------------------------------------------
   TIME STEP LENGTH  100.00      1.6667     2.77778E-02 1.15741E-03 3.16881E-06
 STRESS PERIOD TIME  100.00      1.6667     2.77778E-02 1.15741E-03 3.16881E-06
         TOTAL TIME  1200.0      20.000     0.33333     1.38889E-02 3.80257E-05


end timestep


start timestep kper="13" kstp="1" mode="normal"


 OUTPUT CONTROL FOR STRESS PERIOD 13 IS REPEATED USING SETTINGS FROM A PREVIOUS STRESS PERIOD.


 STRESS PERIOD 13 IS TRANSIENT


 REUSING WELS FROM LAST STRESS PERIOD

 REUSING CHDS FROM LAST STRESS PERIOD
 UBDSV1 SAVING           STO-SS ON UNIT   1024 AT TIME STEP      1, STRESS PERIOD     13
 UBDSV1 SAVING     FLOW-JA-FACE ON UNIT   1024 AT TIME STEP      1, STRESS PERIOD     13
 UBDSV06 SAVING       DATA-SPDIS IN MODEL GWF-P09-MF6      PACKAGE NPF             CONNECTED TO MODEL GWF-P09-MF6      PACKAGE NPF              ON UNIT   1024 AT TIME STEP      1, STRESS PERIOD     13
 UBDSV06 SAVING              WEL IN MODEL GWF-P09-MF6      PACKAGE GWF-P09-MF6     CONNECTED TO MODEL GWF-P09-MF6      PACKAGE WEL-1            ON UNIT   1024 AT TIME STEP      1, STRESS PERIOD     13
 UBDSV06 SAVING              CHD IN MODEL GWF-P09-MF6      PACKAGE GWF-P09-MF6     CONNECTED TO MODEL GWF-P09-MF6      PACKAGE CHD-1            ON UNIT   1024 AT TIME STEP      1, STRESS PERIOD     13

 WEL PACKAGE (WEL-1) FLOW RATES   PERIOD     13   STEP        1
 -----------------------------------------------
   NUMBER   CELLID                    RATE      
 -----------------------------------------------
     1      (1,4,7)               1.00000000E-03
     2      (1,11,7)             -1.89000000E-02
 -----------------------------------------------



1
  HEAD IN LAYER   1 AT END OF TIME STEP   1 IN STRESS PERIOD   13
  ---------------------------------------------------------------------------

                1               2               3               4               5               6               7               8               9              10
               11              12              13              14
 ................................................................................................................................................................
   1      250.000         250.000         250.000         250.000         250.000         250.000         250.000         250.000         250.000         250.000    
          250.000         250.000         250.000         250.000    
   2      149.281         149.304         149.322         149.332         149.339         149.347         149.347         149.317         149.277         149.252    
          149.242         149.238         149.237         149.237    
   3      75.1875         75.3005         75.3726         75.4058         75.4256         75.4460         75.4545         75.3360         75.1674         75.0798    
          75.0468         75.0364         75.0335         75.0328    
   4      32.8949         33.4208         33.6649         33.7524         33.7914         33.8321         33.9105         33.4846         32.8263         32.5664    
          32.4864         32.4645         32.4589         32.4577    
   5      13.2732         15.6982         16.3544         16.5295         16.5798         16.5828         16.4550         15.7188         13.1236         12.5378    
          12.4027         12.3715         12.3644         12.3629    
   6      4.49542        2.663015E-02    2.206007E-02    2.224015E-02    2.230191E-02    2.234675E-02    2.229711E-02    2.664033E-02     4.41601         4.29908    
          4.25061         4.23591         4.23206         4.23117    
   7      1.39347        1.485850E-03    1.260538E-05    1.197125E-05    1.187396E-05    1.162784E-05    1.194297E-05    1.445893E-03     1.35115         1.33508    
          1.32664         1.32392         1.32326         1.32315    
   8     0.396106        3.858527E-04   -3.575741E-05   -1.263012E-04   -3.516690E-04   -8.008098E-04   -1.295822E-03   -4.694875E-04    0.330076        0.358707    
         0.374484        0.380945        0.383227        0.383908    
   9     8.711725E-02    1.011822E-02   -3.059067E-02   -0.101538       -0.252681       -0.507049       -0.731503       -0.475634       -0.114799        2.735275E-02
         8.144881E-02    0.100399        0.106507        0.108233    
  10     2.373309E-02    1.410500E-03   -3.721392E-02   -0.137258       -0.389232       -0.920408        -1.65941       -0.907207       -0.352943       -9.846692E-02
        -1.117170E-03    3.222146E-02    4.283427E-02    4.586923E-02
  11     3.332274E-02    2.100682E-02   -1.894135E-02   -0.145777       -0.521966        -1.58416        -4.62878        -1.57337       -0.499341       -0.115283    
         1.741851E-02    6.168905E-02    7.641413E-02    8.107520E-02
  12     0.116105        0.111996        8.944710E-02    7.936970E-03   -0.219584       -0.721785        -1.43981       -0.694634       -0.165387        8.791347E-02
         0.193395        0.236636        0.255761        0.263812    
  13     0.378081        0.390878        0.403992        0.393540        0.324290        0.172985        3.131704E-02    0.257521        0.492892        0.644570    
         0.733285        0.788781        0.825546        0.845454    
  14      1.10108         1.15536         1.24113         1.33307         1.41105         1.47000         1.54617         1.71673         1.90345         2.06756    
          2.20747         2.32771         2.42435         2.48205    
  15      2.85899         3.02060         3.27545         3.56886         3.87187         4.17519         4.48713         4.82337         5.16628         5.50248    
          5.82670         6.13056         6.38968         6.55270    
  16      6.49741         6.92392         7.55548         8.26516         8.99991         9.74181         10.4883         11.2412         11.9959         12.7472    
          13.4885         14.2016         14.8346         15.2617    
  17      12.5723         13.6156         14.9749         16.4287         17.9097         19.3981         20.8890         22.3818         23.8747         25.3655    
          26.8482         28.3030         29.6627         30.7062    
  18      20.0000         22.5000         25.0000         27.5000         30.0000         32.5000         35.0000         37.5000         40.0000         42.5000    
          45.0000         47.5000         50.0000         52.5000    

 HEAD WILL BE SAVED ON UNIT 1025 AT END OF TIME STEP    1, STRESS PERIOD   13


  VOLUME BUDGET FOR ENTIRE MODEL AT END OF TIME STEP    1, STRESS PERIOD  13
  ---------------------------------------------------------------------------------------------------

     CUMULATIVE VOLUME      L**3       RATES FOR THIS TIME STEP      L**3/T          PACKAGE NAME    
     ------------------                 ------------------------                     ----------------

           IN:                                      IN:
           ---                                      ---
              STO-SS =          19.3355                STO-SS =       9.3521E-03     STORAGE                          
                 WEL =           1.3000                   WEL =       1.0000E-03     WEL-1                            
                 CHD =        4410.5101                   CHD =           2.3798     CHD-1                            

            TOTAL IN =        4431.1456              TOTAL IN =           2.3901

          OUT:                                     OUT:
          ----                                     ----
              STO-SS =        4406.5756                STO-SS =           2.3712     STORAGE                          
                 WEL =          24.5700                   WEL =       1.8900E-02     WEL-1                            
                 CHD =           0.0000                   CHD =           0.0000     CHD-1                            

           TOTAL OUT =        4431.1456             TOTAL OUT =           2.3901

            IN - OUT =       5.6851E-07              IN - OUT =       3.3909E-10

 PERCENT DISCREPANCY =           0.00     PERCENT DISCREPANCY =           0.00




         TIME SUMMARY AT END OF TIME STEP    1 IN STRESS PERIOD   13
                    SECONDS     MINUTES      HOURS       DAYS        YEARS
                    -----------------------------------------------------------
   TIME STEP LENGTH  100.00      1.6667     2.77778E-02 1.15741E-03 3.16881E-06
 STRESS PERIOD TIME  100.00      1.6667     2.77778E-02 1.15741E-03 3.16881E-06
         TOTAL TIME  1300.0      21.667     0.36111     1.50463E-02 4.11945E-05


end timestep


start timestep kper="14" kstp="1" mode="normal"


 OUTPUT CONTROL FOR STRESS PERIOD 14 IS REPEATED USING SETTINGS FROM A PREVIOUS STRESS PERIOD.


 STRESS PERIOD 14 IS TRANSIENT


 REUSING WELS FROM LAST STRESS PERIOD

 REUSING CHDS FROM LAST STRESS PERIOD
 UBDSV1 SAVING           STO-SS ON UNIT   1024 AT TIME STEP      1, STRESS PERIOD     14
 UBDSV1 SAVING     FLOW-JA-FACE ON UNIT   1024 AT TIME STEP      1, STRESS PERIOD     14
 UBDSV06 SAVING       DATA-SPDIS IN MODEL GWF-P09-MF6      PACKAGE NPF             CONNECTED TO MODEL GWF-P09-MF6      PACKAGE NPF              ON UNIT   1024 AT TIME STEP      1, STRESS PERIOD     14
 UBDSV06 SAVING              WEL IN MODEL GWF-P09-MF6      PACKAGE GWF-P09-MF6     CONNECTED TO MODEL GWF-P09-MF6      PACKAGE WEL-1            ON UNIT   1024 AT TIME STEP      1, STRESS PERIOD     14
 UBDSV06 SAVING              CHD IN MODEL GWF-P09-MF6      PACKAGE GWF-P09-MF6     CONNECTED TO MODEL GWF-P09-MF6      PACKAGE CHD-1            ON UNIT   1024 AT TIME STEP      1, STRESS PERIOD     14

 WEL PACKAGE (WEL-1) FLOW RATES   PERIOD     14   STEP        1
 -----------------------------------------------
   NUMBER   CELLID                    RATE      
 -----------------------------------------------
     1      (1,4,7)               1.00000000E-03
     2      (1,11,7)             -1.89000000E-02
 -----------------------------------------------



1
  HEAD IN LAYER   1 AT END OF TIME STEP   1 IN STRESS PERIOD   14
  ---------------------------------------------------------------------------

                1               2               3               4               5               6               7               8               9              10
               11              12              13              14
 ................................................................................................................................................................
   1      250.000         250.000         250.000         250.000         250.000         250.000         250.000         250.000         250.000         250.000    
          250.000         250.000         250.000         250.000    
   2      152.819         152.849         152.873         152.886         152.895         152.902         152.899         152.862         152.811         152.779    
          152.765         152.760         152.758         152.758    
   3      79.6125         79.7539         79.8469         79.8903         79.9136         79.9324         79.9309         79.7876         79.5798         79.4686    
          79.4254         79.4113         79.4072         79.4061    
   4      36.2850         36.9203         37.2259         37.3380         37.3842         37.4202         37.4735         36.9784         36.1870         35.8644    
          35.7617         35.7326         35.7250         35.7232    
   5      15.3211         18.1580         18.9566         19.1773         19.2388         19.2331         19.0584         18.1686         15.1250         14.4150    
          14.2451         14.2042         14.1946         14.1925    
   6      5.41419        3.354701E-02    2.763158E-02    2.787563E-02    2.795548E-02    2.799860E-02    2.789842E-02    3.352892E-02     5.30750         5.16129    
          5.09856         5.07884         5.07348         5.07221    
   7      1.75120        2.005139E-03    1.695937E-05    1.605170E-05    1.592553E-05    1.560795E-05    1.610982E-05    1.948481E-03     1.69488         1.67348    
          1.66171         1.65770         1.65667         1.65646    
   8     0.518645        5.430767E-04   -4.630408E-05   -1.614419E-04   -4.365387E-04   -9.661419E-04   -1.529066E-03   -4.931431E-04    0.438958        0.471814    
         0.490269        0.498056        0.500908        0.501790    
   9     0.118463        1.586193E-02   -3.612679E-02   -0.119492       -0.288713       -0.562830       -0.795089       -0.520971       -0.110252        5.190060E-02
         0.115013        0.137862        0.145506        0.147741    
  10     3.353894E-02    4.247057E-03   -4.238134E-02   -0.155675       -0.428837       -0.984241        -1.73444       -0.966193       -0.380051       -0.102434    
         7.728394E-03    4.703165E-02    6.008767E-02    6.396040E-02
  11     4.443219E-02    2.921265E-02   -1.702825E-02   -0.156930       -0.555412        -1.64392        -4.70122        -1.62949       -0.525228       -0.116224    
         3.131316E-02    8.292453E-02    0.100905        0.106787    
  12     0.145914        0.140870        0.114965        2.472873E-02   -0.218870       -0.740189        -1.46624       -0.706060       -0.150775        0.125066    
         0.245089        0.296516        0.319969        0.329936    
  13     0.454675        0.469277        0.484405        0.473670        0.400239        0.243407        0.103252        0.344738        0.602263        0.774223    
         0.878166        0.944320        0.988121         1.01166    
  14      1.26847         1.32903         1.42525         1.52893         1.61801         1.68809         1.77913         1.97120         2.18287         2.37100    
          2.53195         2.66969         2.77949         2.84446    
  15      3.15728         3.33135         3.60775         3.92756         4.25882         4.59135         4.93439         5.30450         5.68266         6.05350    
          6.41029         6.74312         7.02503         7.20097    
  16      6.89566         7.33955         8.00125         8.74826         9.52356         10.3074         11.0969         11.8939         12.6931         13.4883    
          14.2718         15.0232         15.6869         16.1315    
  17      12.8920         13.9497         15.3337         16.8181         18.3323         19.8551         21.3809         22.9089         24.4372         25.9629    
          27.4794         28.9651         30.3497         31.4076    
  18      20.0000         22.5000         25.0000         27.5000         30.0000         32.5000         35.0000         37.5000         40.0000         42.5000    
          45.0000         47.5000         50.0000         52.5000    

 HEAD WILL BE SAVED ON UNIT 1025 AT END OF TIME STEP    1, STRESS PERIOD   14


  VOLUME BUDGET FOR ENTIRE MODEL AT END OF TIME STEP    1, STRESS PERIOD  14
  ---------------------------------------------------------------------------------------------------

     CUMULATIVE VOLUME      L**3       RATES FOR THIS TIME STEP      L**3/T          PACKAGE NAME    
     ------------------                 ------------------------                     ----------------

           IN:                                      IN:
           ---                                      ---
              STO-SS =          20.1684                STO-SS =       8.3289E-03     STORAGE                          
                 WEL =           1.4000                   WEL =       1.0000E-03     WEL-1                            
                 CHD =        4640.1313                   CHD =           2.2962     CHD-1                            

            TOTAL IN =        4661.6997              TOTAL IN =           2.3055

          OUT:                                     OUT:
          ----                                     ----
              STO-SS =        4635.2397                STO-SS =           2.2866     STORAGE                          
                 WEL =          26.4600                   WEL =       1.8900E-02     WEL-1                            
                 CHD =           0.0000                   CHD =           0.0000     CHD-1                            

           TOTAL OUT =        4661.6997             TOTAL OUT =           2.3055

            IN - OUT =       6.0109E-07              IN - OUT =       3.2582E-10

 PERCENT DISCREPANCY =           0.00     PERCENT DISCREPANCY =           0.00




         TIME SUMMARY AT END OF TIME STEP    1 IN STRESS PERIOD   14
                    SECONDS     MINUTES      HOURS       DAYS        YEARS
                    -----------------------------------------------------------
   TIME STEP LENGTH  100.00      1.6667     2.77778E-02 1.15741E-03 3.16881E-06
 STRESS PERIOD TIME  100.00      1.6667     2.77778E-02 1.15741E-03 3.16881E-06
         TOTAL TIME  1400.0      23.333     0.38889     1.62037E-02 4.43633E-05


end timestep


start timestep kper="15" kstp="1" mode="normal"


 OUTPUT CONTROL FOR STRESS PERIOD 15 IS REPEATED USING SETTINGS FROM A PREVIOUS STRESS PERIOD.


 STRESS PERIOD 15 IS TRANSIENT


 REUSING WELS FROM LAST STRESS PERIOD

 REUSING CHDS FROM LAST STRESS PERIOD
 UBDSV1 SAVING           STO-SS ON UNIT   1024 AT TIME STEP      1, STRESS PERIOD     15
 UBDSV1 SAVING     FLOW-JA-FACE ON UNIT   1024 AT TIME STEP      1, STRESS PERIOD     15
 UBDSV06 SAVING       DATA-SPDIS IN MODEL GWF-P09-MF6      PACKAGE NPF             CONNECTED TO MODEL GWF-P09-MF6      PACKAGE NPF              ON UNIT   1024 AT TIME STEP      1, STRESS PERIOD     15
 UBDSV06 SAVING              WEL IN MODEL GWF-P09-MF6      PACKAGE GWF-P09-MF6     CONNECTED TO MODEL GWF-P09-MF6      PACKAGE WEL-1            ON UNIT   1024 AT TIME STEP      1, STRESS PERIOD     15
 UBDSV06 SAVING              CHD IN MODEL GWF-P09-MF6      PACKAGE GWF-P09-MF6     CONNECTED TO MODEL GWF-P09-MF6      PACKAGE CHD-1            ON UNIT   1024 AT TIME STEP      1, STRESS PERIOD     15

 WEL PACKAGE (WEL-1) FLOW RATES   PERIOD     15   STEP        1
 -----------------------------------------------
   NUMBER   CELLID                    RATE      
 -----------------------------------------------
     1      (1,4,7)               1.00000000E-03
     2      (1,11,7)             -1.89000000E-02
 -----------------------------------------------



1
  HEAD IN LAYER   1 AT END OF TIME STEP   1 IN STRESS PERIOD   15
  ---------------------------------------------------------------------------

                1               2               3               4               5               6               7               8               9              10
               11              12              13              14
 ................................................................................................................................................................
   1      250.000         250.000         250.000         250.000         250.000         250.000         250.000         250.000         250.000         250.000    
          250.000         250.000         250.000         250.000    
   2      156.027         156.065         156.096         156.113         156.123         156.129         156.123         156.077         156.014         155.973    
          155.955         155.948         155.946         155.945    
   3      83.7800         83.9532         84.0705         84.1258         84.1531         84.1695         84.1557         83.9835         83.7312         83.5925    
          83.5370         83.5184         83.5128         83.5113    
   4      39.6330         40.3862         40.7605         40.9012         40.9555         40.9854         41.0090         40.4359         39.4993         39.1064    
          38.9773         38.9395         38.9292         38.9267    
   5      17.4462         20.7112         21.6646         21.9370         22.0113         21.9946         21.7661         20.7084         17.1957         16.3508    
          16.1414         16.0892         16.0764         16.0735    
   6      6.41173        4.150359E-02    3.399805E-02    3.432099E-02    3.442272E-02    3.446088E-02    3.429460E-02    4.144365E-02     6.27210         6.09301    
          6.01365         5.98785         5.98058         5.97881    
   7      2.15749        2.644813E-03    2.234185E-05    2.107479E-05    2.091481E-05    2.051246E-05    2.127123E-05    2.566430E-03     2.08417         2.05646    
          2.04056         2.03488         2.03332         2.03298    
   8     0.663905        7.452931E-04   -5.841341E-05   -2.020376E-04   -5.320859E-04   -1.147520E-03   -1.780129E-03   -4.907507E-04    0.569191        0.606339    
         0.627498        0.636663        0.640133        0.641240    
   9     0.157125        2.366760E-02   -4.154672E-02   -0.138064       -0.325099       -0.617596       -0.856132       -0.562934       -9.827029E-02    8.485731E-02
         0.157434        0.184486        0.193848        0.196674    
  10     4.609538E-02    8.426132E-03   -4.709704E-02   -0.173821       -0.467137        -1.04433        -1.80370        -1.02021       -0.402908       -0.102486    
         2.068934E-02    6.630807E-02    8.206756E-02    8.690139E-02
  11     5.792123E-02    3.939052E-02   -1.343900E-02   -0.166097       -0.585138        -1.69659        -4.76404        -1.67772       -0.545734       -0.112943    
         4.943213E-02    0.108765        0.130330        0.137601    
  12     0.179791        0.173703        0.144398        4.582099E-02   -0.212400       -0.750149        -1.48215       -0.708073       -0.128487        0.169275    
         0.304141        0.364303        0.392516        0.404616    
  13     0.537576        0.553981        0.571188        0.560479        0.483754        0.322976        0.185709        0.442414        0.721786        0.914313    
          1.03418         1.11168         1.16299         1.19038    
  14      1.44137         1.50811         1.61466         1.73009         1.83055         1.91240         2.01900         2.23289         2.46978         2.68242    
          2.86498         3.02065         3.14379         3.21608    
  15      3.45148         3.63733         3.93423         4.27936         4.63793         4.99890         5.37240         5.77572         6.18851         6.59341    
          6.98212         7.34312         7.64697         7.83523    
  16      7.27168         7.73130         8.42053         9.20193         10.0149         10.8378         11.6676         12.5059         13.3470         14.1835    
          15.0064         15.7933         16.4851         16.9457    
  17      13.1832         14.2534         15.6592         17.1708         18.7148         20.2685         21.8258         23.3857         24.9460         26.5034    
          28.0502         29.5635         30.9701         32.0405    
  18      20.0000         22.5000         25.0000         27.5000         30.0000         32.5000         35.0000         37.5000         40.0000         42.5000    
          45.0000         47.5000         50.0000         52.5000    

 HEAD WILL BE SAVED ON UNIT 1025 AT END OF TIME STEP    1, STRESS PERIOD   15


  VOLUME BUDGET FOR ENTIRE MODEL AT END OF TIME STEP    1, STRESS PERIOD  15
  ---------------------------------------------------------------------------------------------------

     CUMULATIVE VOLUME      L**3       RATES FOR THIS TIME STEP      L**3/T          PACKAGE NAME    
     ------------------                 ------------------------                     ----------------

           IN:                                      IN:
           ---                                      ---
              STO-SS =          20.9056                STO-SS =       7.3718E-03     STORAGE                          
                 WEL =           1.5000                   WEL =       1.0000E-03     WEL-1                            
                 CHD =        4862.1793                   CHD =           2.2205     CHD-1                            

            TOTAL IN =        4884.5849              TOTAL IN =           2.2289

          OUT:                                     OUT:
          ----                                     ----
              STO-SS =        4856.2349                STO-SS =           2.2100     STORAGE                          
                 WEL =          28.3500                   WEL =       1.8900E-02     WEL-1                            
                 CHD =           0.0000                   CHD =           0.0000     CHD-1                            

           TOTAL OUT =        4884.5849             TOTAL OUT =           2.2289

            IN - OUT =       6.3306E-07              IN - OUT =       3.1968E-10

 PERCENT DISCREPANCY =           0.00     PERCENT DISCREPANCY =           0.00




         TIME SUMMARY AT END OF TIME STEP    1 IN STRESS PERIOD   15
                    SECONDS     MINUTES      HOURS       DAYS        YEARS
                    -----------------------------------------------------------
   TIME STEP LENGTH  100.00      1.6667     2.77778E-02 1.15741E-03 3.16881E-06
 STRESS PERIOD TIME  100.00      1.6667     2.77778E-02 1.15741E-03 3.16881E-06
         TOTAL TIME  1500.0      25.000     0.41667     1.73611E-02 4.75321E-05


end timestep


start timestep kper="16" kstp="1" mode="normal"


 OUTPUT CONTROL FOR STRESS PERIOD 16 IS REPEATED USING SETTINGS FROM A PREVIOUS STRESS PERIOD.


 STRESS PERIOD 16 IS TRANSIENT


 REUSING WELS FROM LAST STRESS PERIOD

 REUSING CHDS FROM LAST STRESS PERIOD
 UBDSV1 SAVING           STO-SS ON UNIT   1024 AT TIME STEP      1, STRESS PERIOD     16
 UBDSV1 SAVING     FLOW-JA-FACE ON UNIT   1024 AT TIME STEP      1, STRESS PERIOD     16
 UBDSV06 SAVING       DATA-SPDIS IN MODEL GWF-P09-MF6      PACKAGE NPF             CONNECTED TO MODEL GWF-P09-MF6      PACKAGE NPF              ON UNIT   1024 AT TIME STEP      1, STRESS PERIOD     16
 UBDSV06 SAVING              WEL IN MODEL GWF-P09-MF6      PACKAGE GWF-P09-MF6     CONNECTED TO MODEL GWF-P09-MF6      PACKAGE WEL-1            ON UNIT   1024 AT TIME STEP      1, STRESS PERIOD     16
 UBDSV06 SAVING              CHD IN MODEL GWF-P09-MF6      PACKAGE GWF-P09-MF6     CONNECTED TO MODEL GWF-P09-MF6      PACKAGE CHD-1            ON UNIT   1024 AT TIME STEP      1, STRESS PERIOD     16

 WEL PACKAGE (WEL-1) FLOW RATES   PERIOD     16   STEP        1
 -----------------------------------------------
   NUMBER   CELLID                    RATE      
 -----------------------------------------------
     1      (1,4,7)               1.00000000E-03
     2      (1,11,7)             -1.89000000E-02
 -----------------------------------------------



1
  HEAD IN LAYER   1 AT END OF TIME STEP   1 IN STRESS PERIOD   16
  ---------------------------------------------------------------------------

                1               2               3               4               5               6               7               8               9              10
               11              12              13              14
 ................................................................................................................................................................
   1      250.000         250.000         250.000         250.000         250.000         250.000         250.000         250.000         250.000         250.000    
          250.000         250.000         250.000         250.000    
   2      158.953         159.000         159.039         159.061         159.073         159.078         159.067         159.011         158.933         158.882    
          158.858         158.849         158.846         158.846    
   3      87.7110         87.9191         88.0641         88.1334         88.1652         88.1783         88.1497         87.9444         87.6423         87.4722    
          87.4023         87.3781         87.3706         87.3686    
   4      42.9296         43.8081         44.2583         44.4315         44.4949         44.5170         44.5062         43.8465         42.7537         42.2829    
          42.1236         42.0754         42.0620         42.0586    
   5      19.6348         23.3402         24.4594         24.7894         24.8780         24.8483         24.5591         23.3203         19.3217         18.3323    
          18.0789         18.0135         17.9969         17.9929    
   6      7.48284        5.054303E-02    4.118472E-02    4.160317E-02    4.173098E-02    4.176034E-02    4.151041E-02    5.042479E-02     7.30422         7.08878    
          6.99038         6.95734         6.94773         6.94531    
   7      2.61237        3.419253E-03    2.889284E-05    2.716273E-05    2.696388E-05    2.646219E-05    2.756397E-05    3.313158E-03     2.51880         2.48376    
          2.46287         2.45507         2.45281         2.45229    
   8     0.833160        1.000267E-03   -7.196840E-05   -2.481834E-04   -6.382989E-04   -1.344527E-03   -2.048145E-03   -4.544762E-04    0.722039        0.763528    
         0.787375        0.797934        0.802056        0.803410    
   9     0.203888        3.393521E-02   -4.659717E-02   -0.156968       -0.361461       -0.670976       -0.914292       -0.600865       -7.780095E-02    0.127351    
         0.209811        0.241343        0.252598        0.256094    
  10     6.182118E-02    1.423869E-02   -5.111524E-02   -0.191409       -0.503856        -1.10066        -1.86743        -1.06904       -0.420859       -9.784918E-02
         3.851354E-02    9.076515E-02    0.109478        0.115397    
  11     7.402483E-02    5.174752E-02   -7.953644E-03   -0.173022       -0.611007        -1.74251        -4.81805        -1.71830       -0.560536       -0.104941    
         7.225127E-02    0.139649        0.165113        0.173936    
  12     0.217757        0.210513        0.177789        7.130303E-02   -0.200134       -0.751923        -1.48812       -0.700914       -9.845586E-02    0.220654    
         0.370595        0.439986        0.473363        0.487804    
  13     0.626303        0.644490        0.663826        0.653455        0.574310        0.411044        0.277877        0.549791        0.850713         1.06399    
          1.20034         1.28979         1.34904         1.38048    
  14      1.61861         1.69136         1.80805         1.93516         2.04723         2.14139         2.26409         2.49996         2.76220         2.99967    
          3.20424         3.37810         3.51470         3.59430    
  15      3.74058         3.93752         4.25388         4.62320         5.00806         5.39665         5.79987         6.23561         6.68230         7.12056    
          7.54043         7.92875         8.25367         8.45367    
  16      7.62696         8.10086         8.81528         9.62839         10.4762         11.3357         12.2032         13.0804         13.9608         14.8361    
          15.6959         16.5159         17.2335         17.7087    
  17      13.4498         14.5309         15.9560         17.4920         19.0629         20.6445         22.2305         23.8194         25.4088         26.9949    
          28.5692         30.1073         31.5334         32.6150    
  18      20.0000         22.5000         25.0000         27.5000         30.0000         32.5000         35.0000         37.5000         40.0000         42.5000    
          45.0000         47.5000         50.0000         52.5000    

 HEAD WILL BE SAVED ON UNIT 1025 AT END OF TIME STEP    1, STRESS PERIOD   16


  VOLUME BUDGET FOR ENTIRE MODEL AT END OF TIME STEP    1, STRESS PERIOD  16
  ---------------------------------------------------------------------------------------------------

     CUMULATIVE VOLUME      L**3       RATES FOR THIS TIME STEP      L**3/T          PACKAGE NAME    
     ------------------                 ------------------------                     ----------------

           IN:                                      IN:
           ---                                      ---
              STO-SS =          21.5570                STO-SS =       6.5145E-03     STORAGE                          
                 WEL =           1.6000                   WEL =       1.0000E-03     WEL-1                            
                 CHD =        5077.3226                   CHD =           2.1514     CHD-1                            

            TOTAL IN =        5100.4797              TOTAL IN =           2.1589

          OUT:                                     OUT:
          ----                                     ----
              STO-SS =        5070.2397                STO-SS =           2.1400     STORAGE                          
                 WEL =          30.2400                   WEL =       1.8900E-02     WEL-1                            
                 CHD =           0.0000                   CHD =           0.0000     CHD-1                            

           TOTAL OUT =        5100.4797             TOTAL OUT =           2.1589

            IN - OUT =       6.6504E-07              IN - OUT =       3.1976E-10

 PERCENT DISCREPANCY =           0.00     PERCENT DISCREPANCY =           0.00




         TIME SUMMARY AT END OF TIME STEP    1 IN STRESS PERIOD   16
                    SECONDS     MINUTES      HOURS       DAYS        YEARS
                    -----------------------------------------------------------
   TIME STEP LENGTH  100.00      1.6667     2.77778E-02 1.15741E-03 3.16881E-06
 STRESS PERIOD TIME  100.00      1.6667     2.77778E-02 1.15741E-03 3.16881E-06
         TOTAL TIME  1600.0      26.667     0.44444     1.85185E-02 5.07009E-05


end timestep


start timestep kper="17" kstp="1" mode="normal"


 OUTPUT CONTROL FOR STRESS PERIOD 17 IS REPEATED USING SETTINGS FROM A PREVIOUS STRESS PERIOD.


 STRESS PERIOD 17 IS TRANSIENT


 REUSING WELS FROM LAST STRESS PERIOD

 REUSING CHDS FROM LAST STRESS PERIOD
 UBDSV1 SAVING           STO-SS ON UNIT   1024 AT TIME STEP      1, STRESS PERIOD     17
 UBDSV1 SAVING     FLOW-JA-FACE ON UNIT   1024 AT TIME STEP      1, STRESS PERIOD     17
 UBDSV06 SAVING       DATA-SPDIS IN MODEL GWF-P09-MF6      PACKAGE NPF             CONNECTED TO MODEL GWF-P09-MF6      PACKAGE NPF              ON UNIT   1024 AT TIME STEP      1, STRESS PERIOD     17
 UBDSV06 SAVING              WEL IN MODEL GWF-P09-MF6      PACKAGE GWF-P09-MF6     CONNECTED TO MODEL GWF-P09-MF6      PACKAGE WEL-1            ON UNIT   1024 AT TIME STEP      1, STRESS PERIOD     17
 UBDSV06 SAVING              CHD IN MODEL GWF-P09-MF6      PACKAGE GWF-P09-MF6     CONNECTED TO MODEL GWF-P09-MF6      PACKAGE CHD-1            ON UNIT   1024 AT TIME STEP      1, STRESS PERIOD     17

 WEL PACKAGE (WEL-1) FLOW RATES   PERIOD     17   STEP        1
 -----------------------------------------------
   NUMBER   CELLID                    RATE      
 -----------------------------------------------
     1      (1,4,7)               1.00000000E-03
     2      (1,11,7)             -1.89000000E-02
 -----------------------------------------------



1
  HEAD IN LAYER   1 AT END OF TIME STEP   1 IN STRESS PERIOD   17
  ---------------------------------------------------------------------------

                1               2               3               4               5               6               7               8               9              10
               11              12              13              14
 ................................................................................................................................................................
   1      250.000         250.000         250.000         250.000         250.000         250.000         250.000         250.000         250.000         250.000    
          250.000         250.000         250.000         250.000    
   2      161.637         161.694         161.743         161.770         161.784         161.788         161.770         161.702         161.608         161.545    
          161.516         161.504         161.500         161.499    
   3      91.4255         91.6717         91.8476         91.9329         91.9697         91.9787         91.9327         91.6899         91.3328         91.1273    
          91.0408         91.0099         91.0001         90.9975    
   4      46.1684         47.1785         47.7112         47.9207         47.9944         48.0071         47.9571         47.2026         45.9434         45.3875    
          45.1942         45.1340         45.1167         45.1123    
   5      21.8746         26.0286         27.3236         27.7167         27.8213         27.7762         27.4198         25.9879         21.4907         20.3480    
          20.0461         19.9656         19.9445         19.9393    
   6      8.62206        6.070208E-02    4.921169E-02    4.974387E-02    4.990245E-02    4.991848E-02    4.956545E-02    6.050609E-02     8.39805         8.14298    
          8.02309         7.98161         7.96916         7.96594    
   7      3.11538        4.342696E-03    3.675737E-05    3.444092E-05    3.419806E-05    3.358114E-05    3.512975E-05    4.201864E-03     2.99802         2.95465    
          2.92786         2.91743         2.91426         2.91349    
   8      1.02743        1.316178E-03   -8.677055E-05   -2.998889E-04   -7.550627E-04   -1.556653E-03   -2.332157E-03   -3.760161E-04    0.898507        0.944379    
         0.970857        0.982795        0.987585        0.989204    
   9     0.259485        4.707558E-02   -5.100513E-02   -0.175913       -0.397451       -0.722643       -0.969253       -0.634158       -4.787744E-02    0.180439    
         0.273186        0.309451        0.322763        0.327007    
  10     8.113535E-02    2.198622E-02   -5.418414E-02   -0.208165       -0.538750        -1.15319        -1.92576        -1.11248       -0.433288       -8.776708E-02
         6.194587E-02    0.121119        0.143024        0.150149    
  11     9.296730E-02    6.647936E-02   -3.726738E-04   -0.177489       -0.632920        -1.78199        -4.86385        -1.75144       -0.569350       -9.176522E-02
         0.100217        0.175986        0.205648        0.216184    
  12     0.259798        0.251281        0.215134        0.101197       -0.182114       -0.745822        -1.48471       -0.684885       -6.070920E-02    0.279230    
         0.444425        0.523480        0.562397        0.579376    
  13     0.720362        0.740293        0.761790        0.752067        0.671339        0.506916        0.378916        0.666063        0.988251         1.22237    
          1.37565         1.47756         1.54512         1.58079    
  14      1.79911         1.87769         2.00428         2.14295         2.26676         2.37365         2.51287         2.77079         3.05838         3.32084    
          3.54765         3.73988         3.88996         3.97685    
  15      4.02385         4.23122         4.56597         4.95835         5.36846         5.78379         6.21593         6.68326         7.16300         7.63382    
          8.08404         8.49879         8.84390         9.05507    
  16      7.96300         8.44989         9.18737         10.0297         10.9100         11.8036         12.7065         13.6202         14.5377         15.4495    
          16.3439         17.1946         17.9361         18.4245    
  17      13.6950         14.7859         16.2282         17.7861         19.3812         20.9882         22.6003         24.2158         25.8319         27.4442    
          29.0435         30.6040         32.0476         33.1390    
  18      20.0000         22.5000         25.0000         27.5000         30.0000         32.5000         35.0000         37.5000         40.0000         42.5000    
          45.0000         47.5000         50.0000         52.5000    

 HEAD WILL BE SAVED ON UNIT 1025 AT END OF TIME STEP    1, STRESS PERIOD   17


  VOLUME BUDGET FOR ENTIRE MODEL AT END OF TIME STEP    1, STRESS PERIOD  17
  ---------------------------------------------------------------------------------------------------

     CUMULATIVE VOLUME      L**3       RATES FOR THIS TIME STEP      L**3/T          PACKAGE NAME    
     ------------------                 ------------------------                     ----------------

           IN:                                      IN:
           ---                                      ---
              STO-SS =          22.1321                STO-SS =       5.7501E-03     STORAGE                          
                 WEL =           1.7000                   WEL =       1.0000E-03     WEL-1                            
                 CHD =        5286.1367                   CHD =           2.0881     CHD-1                            

            TOTAL IN =        5309.9688              TOTAL IN =           2.0949

          OUT:                                     OUT:
          ----                                     ----
              STO-SS =        5277.8388                STO-SS =           2.0760     STORAGE                          
                 WEL =          32.1300                   WEL =       1.8900E-02     WEL-1                            
                 CHD =           0.0000                   CHD =           0.0000     CHD-1                            

           TOTAL OUT =        5309.9688             TOTAL OUT =           2.0949

            IN - OUT =       6.9744E-07              IN - OUT =       3.2398E-10

 PERCENT DISCREPANCY =           0.00     PERCENT DISCREPANCY =           0.00




         TIME SUMMARY AT END OF TIME STEP    1 IN STRESS PERIOD   17
                    SECONDS     MINUTES      HOURS       DAYS        YEARS
                    -----------------------------------------------------------
   TIME STEP LENGTH  100.00      1.6667     2.77778E-02 1.15741E-03 3.16881E-06
 STRESS PERIOD TIME  100.00      1.6667     2.77778E-02 1.15741E-03 3.16881E-06
         TOTAL TIME  1700.0      28.333     0.47222     1.96759E-02 5.38697E-05


end timestep


start timestep kper="18" kstp="1" mode="normal"


 OUTPUT CONTROL FOR STRESS PERIOD 18 IS REPEATED USING SETTINGS FROM A PREVIOUS STRESS PERIOD.


 STRESS PERIOD 18 IS TRANSIENT


 REUSING WELS FROM LAST STRESS PERIOD

 REUSING CHDS FROM LAST STRESS PERIOD
 UBDSV1 SAVING           STO-SS ON UNIT   1024 AT TIME STEP      1, STRESS PERIOD     18
 UBDSV1 SAVING     FLOW-JA-FACE ON UNIT   1024 AT TIME STEP      1, STRESS PERIOD     18
 UBDSV06 SAVING       DATA-SPDIS IN MODEL GWF-P09-MF6      PACKAGE NPF             CONNECTED TO MODEL GWF-P09-MF6      PACKAGE NPF              ON UNIT   1024 AT TIME STEP      1, STRESS PERIOD     18
 UBDSV06 SAVING              WEL IN MODEL GWF-P09-MF6      PACKAGE GWF-P09-MF6     CONNECTED TO MODEL GWF-P09-MF6      PACKAGE WEL-1            ON UNIT   1024 AT TIME STEP      1, STRESS PERIOD     18
 UBDSV06 SAVING              CHD IN MODEL GWF-P09-MF6      PACKAGE GWF-P09-MF6     CONNECTED TO MODEL GWF-P09-MF6      PACKAGE CHD-1            ON UNIT   1024 AT TIME STEP      1, STRESS PERIOD     18

 WEL PACKAGE (WEL-1) FLOW RATES   PERIOD     18   STEP        1
 -----------------------------------------------
   NUMBER   CELLID                    RATE      
 -----------------------------------------------
     1      (1,4,7)               1.00000000E-03
     2      (1,11,7)             -1.89000000E-02
 -----------------------------------------------



1
  HEAD IN LAYER   1 AT END OF TIME STEP   1 IN STRESS PERIOD   18
  ---------------------------------------------------------------------------

                1               2               3               4               5               6               7               8               9              10
               11              12              13              14
 ................................................................................................................................................................
   1      250.000         250.000         250.000         250.000         250.000         250.000         250.000         250.000         250.000         250.000    
          250.000         250.000         250.000         250.000    
   2      164.111         164.179         164.239         164.273         164.289         164.291         164.266         164.184         164.072         163.996    
          163.959         163.944         163.939         163.937    
   3      94.9424         95.2293         95.4393         95.5427         95.5851         95.5889         95.5230         95.2383         94.8211         94.5763    
          94.4707         94.4321         94.4195         94.4160    
   4      49.3454         50.4922         51.1135         51.3632         51.4481         51.4498         51.3559         50.4985         49.0641         48.4163    
          48.1851         48.1112         48.0892         48.0835    
   5      24.1545         28.7621         30.2413         30.7030         30.8249         30.7623         30.3321         28.6965         23.6914         22.3880    
          22.0333         21.9357         21.9093         21.9026    
   6      9.82381        7.201155E-02    5.809440E-02    5.876003E-02    5.895448E-02    5.895204E-02    5.847461E-02    7.171523E-02     9.54776         9.24996    
          9.10617         9.05496         9.03914         9.03493    
   7      3.66559        5.429104E-03    4.608479E-05    4.303724E-05    4.274525E-05    4.199585E-05    4.411443E-05    5.245405E-03     3.52070         3.46800    
          3.43435         3.42075         3.41643         3.41533    
   8      1.24746        1.701545E-03   -1.025357E-04   -3.570781E-04   -8.821669E-04   -1.783298E-03   -2.631118E-03   -2.466879E-04     1.09934         1.14964    
          1.17866         1.19193         1.19739         1.19928    
   9     0.324585        6.350269E-02   -5.448338E-02   -0.194609       -0.432742       -0.772303        -1.02072       -0.662251       -7.626469E-03    0.245095    
         0.348525        0.389754        0.405275        0.410343    
  10     0.104450        3.197552E-02   -5.604955E-02   -0.223829       -0.571601        -1.20189        -1.97878        -1.15032       -0.439616       -7.151583E-02
         9.171557E-02    0.158076        0.183398        0.191848    
  11     0.114960        8.376910E-02    9.482688E-03   -0.179319       -0.650812        -1.81527        -4.90193        -1.77729       -0.571934       -7.300513E-02
         0.133742        0.218160        0.252301        0.264705    
  12     0.305870        0.295956        0.256391        0.135470       -0.158452       -0.732189        -1.47243       -0.660323       -1.535269E-02    0.344960    
         0.525543        0.614647        0.659448        0.679149    
  13     0.819256        0.840879        0.864554        0.855774        0.774256        0.609878        0.487984        0.790410         1.13360         1.38858    
          1.55915         1.67394         1.75011         1.79017    
  14      1.98194         2.06615         2.20235         2.35239         2.48803         2.60799         2.76403         3.04398         3.35680         3.64427    
          3.89345         4.10412         4.26765         4.36175    
  15      4.30078         4.51794         4.87005         5.28435         5.71867         6.15984         6.62005         7.11807         7.62997         8.13251    
          8.61221         9.05247         9.41693         9.63872    
  16      8.28120         8.77993         9.53856         10.4080         11.3184         12.2438         13.1799         14.1281         15.0806         16.0268    
          16.9536         17.8329         18.5965         19.0971    
  17      13.9216         15.0211         16.4789         18.0565         19.6737         21.3039         22.9399         24.5798         26.2204         27.8568    
          29.4790         31.0598         32.5192         33.6193    
  18      20.0000         22.5000         25.0000         27.5000         30.0000         32.5000         35.0000         37.5000         40.0000         42.5000    
          45.0000         47.5000         50.0000         52.5000    

 HEAD WILL BE SAVED ON UNIT 1025 AT END OF TIME STEP    1, STRESS PERIOD   18


  VOLUME BUDGET FOR ENTIRE MODEL AT END OF TIME STEP    1, STRESS PERIOD  18
  ---------------------------------------------------------------------------------------------------

     CUMULATIVE VOLUME      L**3       RATES FOR THIS TIME STEP      L**3/T          PACKAGE NAME    
     ------------------                 ------------------------                     ----------------

           IN:                                      IN:
           ---                                      ---
              STO-SS =          22.6352                STO-SS =       5.0317E-03     STORAGE                          
                 WEL =           1.8000                   WEL =       1.0000E-03     WEL-1                            
                 CHD =        5489.1199                   CHD =           2.0298     CHD-1                            

            TOTAL IN =        5513.5552              TOTAL IN =           2.0359

          OUT:                                     OUT:
          ----                                     ----
              STO-SS =        5479.5352                STO-SS =           2.0170     STORAGE                          
                 WEL =          34.0200                   WEL =       1.8900E-02     WEL-1                            
                 CHD =           0.0000                   CHD =           0.0000     CHD-1                            

           TOTAL OUT =        5513.5552             TOTAL OUT =           2.0359

            IN - OUT =       7.3041E-07              IN - OUT =       3.2974E-10

 PERCENT DISCREPANCY =           0.00     PERCENT DISCREPANCY =           0.00




         TIME SUMMARY AT END OF TIME STEP    1 IN STRESS PERIOD   18
                    SECONDS     MINUTES      HOURS       DAYS        YEARS
                    -----------------------------------------------------------
   TIME STEP LENGTH  100.00      1.6667     2.77778E-02 1.15741E-03 3.16881E-06
 STRESS PERIOD TIME  100.00      1.6667     2.77778E-02 1.15741E-03 3.16881E-06
         TOTAL TIME  1800.0      30.000     0.50000     2.08333E-02 5.70386E-05


end timestep


start timestep kper="19" kstp="1" mode="normal"


 OUTPUT CONTROL FOR STRESS PERIOD 19 IS REPEATED USING SETTINGS FROM A PREVIOUS STRESS PERIOD.


 STRESS PERIOD 19 IS TRANSIENT


 REUSING WELS FROM LAST STRESS PERIOD

 REUSING CHDS FROM LAST STRESS PERIOD
 UBDSV1 SAVING           STO-SS ON UNIT   1024 AT TIME STEP      1, STRESS PERIOD     19
 UBDSV1 SAVING     FLOW-JA-FACE ON UNIT   1024 AT TIME STEP      1, STRESS PERIOD     19
 UBDSV06 SAVING       DATA-SPDIS IN MODEL GWF-P09-MF6      PACKAGE NPF             CONNECTED TO MODEL GWF-P09-MF6      PACKAGE NPF              ON UNIT   1024 AT TIME STEP      1, STRESS PERIOD     19
 UBDSV06 SAVING              WEL IN MODEL GWF-P09-MF6      PACKAGE GWF-P09-MF6     CONNECTED TO MODEL GWF-P09-MF6      PACKAGE WEL-1            ON UNIT   1024 AT TIME STEP      1, STRESS PERIOD     19
 UBDSV06 SAVING              CHD IN MODEL GWF-P09-MF6      PACKAGE GWF-P09-MF6     CONNECTED TO MODEL GWF-P09-MF6      PACKAGE CHD-1            ON UNIT   1024 AT TIME STEP      1, STRESS PERIOD     19

 WEL PACKAGE (WEL-1) FLOW RATES   PERIOD     19   STEP        1
 -----------------------------------------------
   NUMBER   CELLID                    RATE      
 -----------------------------------------------
     1      (1,4,7)               1.00000000E-03
     2      (1,11,7)             -1.89000000E-02
 -----------------------------------------------



1
  HEAD IN LAYER   1 AT END OF TIME STEP   1 IN STRESS PERIOD   19
  ---------------------------------------------------------------------------

                1               2               3               4               5               6               7               8               9              10
               11              12              13              14
 ................................................................................................................................................................
   1      250.000         250.000         250.000         250.000         250.000         250.000         250.000         250.000         250.000         250.000    
          250.000         250.000         250.000         250.000    
   2      166.404         166.484         166.555         166.597         166.615         166.614         166.582         166.484         166.351         166.260    
          166.215         166.196         166.190         166.188    
   3      98.2787         98.6090         98.8561         98.9796         99.0283         99.0259         98.9373         98.6065         98.1243         97.8362    
          97.7091         97.6616         97.6457         97.6411    
   4      52.4578         53.7457         54.4610         54.7545         54.8517         54.8407         54.6983         53.7307         52.1129         51.3670    
          51.0942         51.0046         50.9773         50.9700    
   5      26.4648         31.5277         33.1983         33.7334         33.8742         33.7919         33.2818         31.4330         25.9142         24.4433    
          24.0319         23.9153         23.8827         23.8743    
   6      11.0825        8.449681E-02    6.784408E-02    6.866429E-02    6.890013E-02    6.887343E-02    6.824855E-02    8.407434E-02     10.7476         10.4042    
          10.2341         10.1719         10.1521         10.1467    
   7      4.26173        6.692058E-03    5.702810E-05    5.308139E-05    5.273526E-05    5.183476E-05    5.466739E-05    6.456198E-03     4.08535         4.02234    
          3.98088         3.96352         3.95778         3.95626    
   8      1.49377        2.165151E-03   -1.188914E-04   -4.195903E-04   -1.019312E-03   -2.023786E-03   -2.943898E-03   -5.751522E-05     1.32503         1.37982    
          1.41127         1.42580         1.43191         1.43407    
   9     0.399788        8.362632E-02   -5.673564E-02   -0.212768       -0.467033       -0.819686        -1.06840       -0.684621        4.372688E-02    0.322195    
         0.436710        0.483111        0.500983        0.506946    
  10     0.132163        4.451376E-02   -5.645821E-02   -0.238154       -0.602215        -1.24672        -2.02653        -1.18232       -0.439302       -4.840930E-02
         0.128525        0.202319        0.231272        0.241163    
  11     0.140202        0.103786        2.177085E-02   -0.178365       -0.664647        -1.84256        -4.93266        -1.79597       -0.568075       -4.829433E-02
         0.173208        0.266527        0.305409        0.319830    
  12     0.355905        0.344462        0.301486        0.174043       -0.129309       -0.711391        -1.45182       -0.627593        3.745002E-02    0.417743    
         0.613818        0.713306        0.764302        0.786895    
  13     0.922499        0.945748        0.971604        0.964045        0.882472        0.719221        0.604255        0.922017         1.28595         1.56178    
          1.74989         1.87790         1.96296         2.00753    
  14      2.16628         2.25589         2.40139         2.56260         2.71009         2.84336         3.01641         3.31831         3.65618         3.96856    
          4.24010         4.46919         4.64610         4.74734    
  15      4.57103         4.79737         5.16586         5.60096         6.05846         6.52454         7.01197         7.53975         8.08289         8.61624    
          9.12453         9.58940         9.97239         10.2043    
  16      8.58288         9.09243         9.87049         10.7649         11.7034         12.6587         13.6260         14.6067         15.5921         16.5708    
          17.5281         18.4341         19.2181         19.7300    
  17      14.1319         15.2391         16.7107         18.3062         19.9435         21.5950         23.2530         24.9154         26.5786         28.2372    
          29.8804         31.4797         32.9534         34.0614    
  18      20.0000         22.5000         25.0000         27.5000         30.0000         32.5000         35.0000         37.5000         40.0000         42.5000    
          45.0000         47.5000         50.0000         52.5000    

 HEAD WILL BE SAVED ON UNIT 1025 AT END OF TIME STEP    1, STRESS PERIOD   19


  VOLUME BUDGET FOR ENTIRE MODEL AT END OF TIME STEP    1, STRESS PERIOD  19
  ---------------------------------------------------------------------------------------------------

     CUMULATIVE VOLUME      L**3       RATES FOR THIS TIME STEP      L**3/T          PACKAGE NAME    
     ------------------                 ------------------------                     ----------------

           IN:                                      IN:
           ---                                      ---
              STO-SS =          23.0686                STO-SS =       4.3339E-03     STORAGE                          
                 WEL =           1.9000                   WEL =       1.0000E-03     WEL-1                            
                 CHD =        5686.7067                   CHD =           1.9759     CHD-1                            

            TOTAL IN =        5711.6753              TOTAL IN =           1.9812

          OUT:                                     OUT:
          ----                                     ----
              STO-SS =        5675.7653                STO-SS =           1.9623     STORAGE                          
                 WEL =          35.9100                   WEL =       1.8900E-02     WEL-1                            
                 CHD =           0.0000                   CHD =           0.0000     CHD-1                            

           TOTAL OUT =        5711.6753             TOTAL OUT =           1.9812

            IN - OUT =       7.6389E-07              IN - OUT =       3.3482E-10

 PERCENT DISCREPANCY =           0.00     PERCENT DISCREPANCY =           0.00




         TIME SUMMARY AT END OF TIME STEP    1 IN STRESS PERIOD   19
                    SECONDS     MINUTES      HOURS       DAYS        YEARS
                    -----------------------------------------------------------
   TIME STEP LENGTH  100.00      1.6667     2.77778E-02 1.15741E-03 3.16881E-06
 STRESS PERIOD TIME  100.00      1.6667     2.77778E-02 1.15741E-03 3.16881E-06
         TOTAL TIME  1900.0      31.667     0.52778     2.19907E-02 6.02074E-05


end timestep


start timestep kper="20" kstp="1" mode="normal"


 OUTPUT CONTROL FOR STRESS PERIOD 20 IS REPEATED USING SETTINGS FROM A PREVIOUS STRESS PERIOD.


 STRESS PERIOD 20 IS TRANSIENT


 REUSING WELS FROM LAST STRESS PERIOD

 REUSING CHDS FROM LAST STRESS PERIOD
 UBDSV1 SAVING           STO-SS ON UNIT   1024 AT TIME STEP      1, STRESS PERIOD     20
 UBDSV1 SAVING     FLOW-JA-FACE ON UNIT   1024 AT TIME STEP      1, STRESS PERIOD     20
 UBDSV06 SAVING       DATA-SPDIS IN MODEL GWF-P09-MF6      PACKAGE NPF             CONNECTED TO MODEL GWF-P09-MF6      PACKAGE NPF              ON UNIT   1024 AT TIME STEP      1, STRESS PERIOD     20
 UBDSV06 SAVING              WEL IN MODEL GWF-P09-MF6      PACKAGE GWF-P09-MF6     CONNECTED TO MODEL GWF-P09-MF6      PACKAGE WEL-1            ON UNIT   1024 AT TIME STEP      1, STRESS PERIOD     20
 UBDSV06 SAVING              CHD IN MODEL GWF-P09-MF6      PACKAGE GWF-P09-MF6     CONNECTED TO MODEL GWF-P09-MF6      PACKAGE CHD-1            ON UNIT   1024 AT TIME STEP      1, STRESS PERIOD     20

 WEL PACKAGE (WEL-1) FLOW RATES   PERIOD     20   STEP        1
 -----------------------------------------------
   NUMBER   CELLID                    RATE      
 -----------------------------------------------
     1      (1,4,7)               1.00000000E-03
     2      (1,11,7)             -1.89000000E-02
 -----------------------------------------------



1
  HEAD IN LAYER   1 AT END OF TIME STEP   1 IN STRESS PERIOD   20
  ---------------------------------------------------------------------------

                1               2               3               4               5               6               7               8               9              10
               11              12              13              14
 ................................................................................................................................................................
   1      250.000         250.000         250.000         250.000         250.000         250.000         250.000         250.000         250.000         250.000    
          250.000         250.000         250.000         250.000    
   2      168.537         168.630         168.715         168.764         168.785         168.782         168.739         168.624         168.469         168.361    
          168.307         168.284         168.275         168.273    
   3      101.450         101.826         102.113         102.259         102.314         102.305         102.191         101.810         101.258         100.923    
          100.772         100.714         100.694         100.688    
   4      55.5046         56.9368         57.7510         58.0917         58.2021         58.1768         57.9814         56.8967         55.0888         54.2389    
          53.9207         53.8137         53.7802         53.7710    
   5      28.7969         34.3142         36.1820         36.7951         36.9559         36.8519         36.2561         34.1860         28.1505         26.5066    
          26.0347         25.8970         25.8574         25.8470    
   6      12.3928        9.817828E-02    7.846826E-02    7.946543E-02    7.974858E-02    7.969120E-02    7.889420E-02    9.760049E-02     11.9919         11.6003    
          11.4017         11.3271         11.3027         11.2959    
   7      4.90221        8.144666E-03    6.974330E-05    6.470439E-05    6.429926E-05    6.322763E-05    6.694088E-05    7.846141E-03     4.69023         4.61600    
          4.56572         4.54399         4.53654         4.53448    
   8      1.76661        2.715970E-03   -1.353755E-04   -4.871816E-04   -1.166116E-03   -2.277366E-03   -3.269287E-03    2.006907E-04     1.57585         1.63519    
          1.66896         1.68464         1.69136         1.69380    
   9     0.485614        0.107846       -5.746139E-02   -0.230107       -0.500043       -0.864547        -1.11204       -0.700790        0.106857        0.412510    
         0.538522        0.590291        0.610639        0.617565    
  10     0.164655        5.990397E-02   -5.516051E-02   -0.250911       -0.630417        -1.28763        -2.06902        -1.20828       -0.431848       -1.780603E-02
         0.173042        0.254502        0.287284        0.298726    
  11     0.168876        0.126687        3.663079E-02   -0.174510       -0.674411        -1.86407        -4.95637        -1.80760       -0.557593       -1.730706E-02
         0.218959        0.321410        0.365277        0.381855    
  12     0.409817        0.396705        0.350320        0.216801       -9.488535E-02   -0.683804        -1.42335       -0.587070        9.749302E-02    0.497437    
         0.709082        0.819244        0.876717        0.902357    
  13      1.02963         1.05442         1.08245         1.07636        0.995411        0.834253        0.726936         1.06010         1.44455         1.74115    
          1.94698         2.08848         2.18264         2.23183    
  14      2.35141         2.44619         2.60068         2.77280         2.93213         3.07887         3.26905         3.59274         3.95538         4.29251    
          4.58632         4.83374         5.02390         5.13218    
  15      4.83441         5.06935         5.45325         5.90809         6.38774         6.87785         7.39161         7.94824         8.52166         9.08491    
          9.62087         10.1094         10.5102         10.7517    
  16      8.86927         9.38873         10.1847         11.1022         12.0669         13.0501         14.0469         15.0582         16.0748         17.0841    
          18.0702         19.0012         19.8042         20.3265    
  17      14.3276         15.4418         16.9260         18.5377         20.1934         21.8645         23.5428         25.2260         26.9102         28.5893    
          30.2519         31.8681         33.3548         34.4699    
  18      20.0000         22.5000         25.0000         27.5000         30.0000         32.5000         35.0000         37.5000         40.0000         42.5000    
          45.0000         47.5000         50.0000         52.5000    

 HEAD WILL BE SAVED ON UNIT 1025 AT END OF TIME STEP    1, STRESS PERIOD   20


  VOLUME BUDGET FOR ENTIRE MODEL AT END OF TIME STEP    1, STRESS PERIOD  20
  ---------------------------------------------------------------------------------------------------

     CUMULATIVE VOLUME      L**3       RATES FOR THIS TIME STEP      L**3/T          PACKAGE NAME    
     ------------------                 ------------------------                     ----------------

           IN:                                      IN:
           ---                                      ---
              STO-SS =          23.4421                STO-SS =       3.7347E-03     STORAGE                          
                 WEL =           2.0000                   WEL =       1.0000E-03     WEL-1                            
                 CHD =        5879.2778                   CHD =           1.9257     CHD-1                            

            TOTAL IN =        5904.7199              TOTAL IN =           1.9304

          OUT:                                     OUT:
          ----                                     ----
              STO-SS =        5866.9199                STO-SS =           1.9115     STORAGE                          
                 WEL =          37.8000                   WEL =       1.8900E-02     WEL-1                            
                 CHD =           0.0000                   CHD =           0.0000     CHD-1                            

           TOTAL OUT =        5904.7199             TOTAL OUT =           1.9304

            IN - OUT =       7.9770E-07              IN - OUT =       3.3804E-10

 PERCENT DISCREPANCY =           0.00     PERCENT DISCREPANCY =           0.00




         TIME SUMMARY AT END OF TIME STEP    1 IN STRESS PERIOD   20
                    SECONDS     MINUTES      HOURS       DAYS        YEARS
                    -----------------------------------------------------------
   TIME STEP LENGTH  100.00      1.6667     2.77778E-02 1.15741E-03 3.16881E-06
 STRESS PERIOD TIME  100.00      1.6667     2.77778E-02 1.15741E-03 3.16881E-06
         TOTAL TIME  2000.0      33.333     0.55556     2.31481E-02 6.33762E-05


end timestep


start timestep kper="21" kstp="1" mode="normal"


 OUTPUT CONTROL FOR STRESS PERIOD 21 IS REPEATED USING SETTINGS FROM A PREVIOUS STRESS PERIOD.


 STRESS PERIOD 21 IS TRANSIENT


 REUSING WELS FROM LAST STRESS PERIOD

 REUSING CHDS FROM LAST STRESS PERIOD
 UBDSV1 SAVING           STO-SS ON UNIT   1024 AT TIME STEP      1, STRESS PERIOD     21
 UBDSV1 SAVING     FLOW-JA-FACE ON UNIT   1024 AT TIME STEP      1, STRESS PERIOD     21
 UBDSV06 SAVING       DATA-SPDIS IN MODEL GWF-P09-MF6      PACKAGE NPF             CONNECTED TO MODEL GWF-P09-MF6      PACKAGE NPF              ON UNIT   1024 AT TIME STEP      1, STRESS PERIOD     21
 UBDSV06 SAVING              WEL IN MODEL GWF-P09-MF6      PACKAGE GWF-P09-MF6     CONNECTED TO MODEL GWF-P09-MF6      PACKAGE WEL-1            ON UNIT   1024 AT TIME STEP      1, STRESS PERIOD     21
 UBDSV06 SAVING              CHD IN MODEL GWF-P09-MF6      PACKAGE GWF-P09-MF6     CONNECTED TO MODEL GWF-P09-MF6      PACKAGE CHD-1            ON UNIT   1024 AT TIME STEP      1, STRESS PERIOD     21

 WEL PACKAGE (WEL-1) FLOW RATES   PERIOD     21   STEP        1
 -----------------------------------------------
   NUMBER   CELLID                    RATE      
 -----------------------------------------------
     1      (1,4,7)               1.00000000E-03
     2      (1,11,7)             -1.89000000E-02
 -----------------------------------------------



1
  HEAD IN LAYER   1 AT END OF TIME STEP   1 IN STRESS PERIOD   21
  ---------------------------------------------------------------------------

                1               2               3               4               5               6               7               8               9              10
               11              12              13              14
 ................................................................................................................................................................
   1      250.000         250.000         250.000         250.000         250.000         250.000         250.000         250.000         250.000         250.000    
          250.000         250.000         250.000         250.000    
   2      170.529         170.636         170.736         170.794         170.818         170.811         170.759         170.624         170.444         170.318    
          170.253         170.225         170.215         170.211    
   3      104.471         104.895         105.225         105.394         105.457         105.439         105.297         104.862         104.236         103.850    
          103.673         103.603         103.579         103.572    
   4      58.4854         60.0641         60.9815         61.3726         61.4973         61.4559         61.2032         59.9952         57.9912         57.0320    
          56.6651         56.5386         56.4981         56.4867    
   5      31.1430         37.1118         39.1812         39.8763         40.0585         39.9306         39.2439         36.9455         30.3928         28.5714    
          28.0354         27.8748         27.8273         27.8145    
   6      13.7492        0.113072        8.997118E-02    9.116882E-02    9.150554E-02    9.141048E-02    9.041516E-02    0.112306         13.2753         12.8333    
          12.6039         12.5155         12.4859         12.4775    
   7      5.58522        9.799499E-03    8.438893E-05    7.803806E-05    7.756931E-05    7.630506E-05    8.108946E-05    9.426554E-03     5.33339         5.24706    
          5.18700         5.16024         5.15075         5.14804    
   8      2.06606        3.363097E-03   -1.514366E-04   -5.595271E-04   -1.322120E-03   -2.543223E-03   -3.605997E-03    5.372563E-04     1.85183         1.91584    
          1.95179         1.96850         1.97577         1.97846    
   9     0.582508        0.136543       -5.636011E-02   -0.246352       -0.531508       -0.906655        -1.15136       -0.710318        0.182337        0.516705    
         0.654641        0.711960        0.734900        0.742848    
  10     0.202280        7.844103E-02   -5.191296E-02   -0.261884       -0.656047        -1.32457        -2.10622        -1.22799       -0.416799        2.088562E-02
         0.225888        0.315237        0.352038        0.365134    
  11     0.201150        0.152614        5.418331E-02   -0.167664       -0.680109        -1.87998        -4.97331        -1.81227       -0.540338        2.024327E-02
         0.271308        0.383104        0.432181        0.451049    
  12     0.467508        0.452576        0.402776        0.263605       -5.540641E-02   -0.649807        -1.38752       -0.539137        0.164541        0.583869    
         0.811144        0.932232        0.996430         1.02526    
  13      1.14019         1.16645         1.19662         1.19224         1.11252        0.954313        0.855277         1.20390         1.60864         1.92592    
          2.14959         2.30479         2.40821         2.46210    
  14      2.53673         2.63645         2.79957         2.98235         3.15344         3.31377         3.52111         3.86639         4.25350         4.61510    
          4.93102         5.19662         5.39989         5.51509    
  15      5.09082         5.33382         5.73224         6.20577         6.70660         7.21984         7.75905         8.34360         8.94635         9.53857    
          10.1013         10.6127         11.0304         11.2811    
  16      9.14151         9.67005         10.4825         11.4215         12.4106         13.4200         14.4445         15.4848         16.5310         17.5693    
          18.5823         19.5368         20.3575         20.8894    
  17      14.5105         15.6309         17.1265         18.7531         20.4257         22.1149         23.8120         25.5145         27.2181         28.9164    
          30.5968         32.2287         33.7271         34.8488    
  18      20.0000         22.5000         25.0000         27.5000         30.0000         32.5000         35.0000         37.5000         40.0000         42.5000    
          45.0000         47.5000         50.0000         52.5000    

 HEAD WILL BE SAVED ON UNIT 1025 AT END OF TIME STEP    1, STRESS PERIOD   21


  VOLUME BUDGET FOR ENTIRE MODEL AT END OF TIME STEP    1, STRESS PERIOD  21
  ---------------------------------------------------------------------------------------------------

     CUMULATIVE VOLUME      L**3       RATES FOR THIS TIME STEP      L**3/T          PACKAGE NAME    
     ------------------                 ------------------------                     ----------------

           IN:                                      IN:
           ---                                      ---
              STO-SS =          23.7553                STO-SS =       3.1318E-03     STORAGE                          
                 WEL =           2.1000                   WEL =       1.0000E-03     WEL-1                            
                 CHD =        6067.1690                   CHD =           1.8789     CHD-1                            

            TOTAL IN =        6093.0243              TOTAL IN =           1.8830

          OUT:                                     OUT:
          ----                                     ----
              STO-SS =        6053.3343                STO-SS =           1.8641     STORAGE                          
                 WEL =          39.6900                   WEL =       1.8900E-02     WEL-1                            
                 CHD =           0.0000                   CHD =           0.0000     CHD-1                            

           TOTAL OUT =        6093.0243             TOTAL OUT =           1.8830

            IN - OUT =       8.3161E-07              IN - OUT =       3.3918E-10

 PERCENT DISCREPANCY =           0.00     PERCENT DISCREPANCY =           0.00




         TIME SUMMARY AT END OF TIME STEP    1 IN STRESS PERIOD   21
                    SECONDS     MINUTES      HOURS       DAYS        YEARS
                    -----------------------------------------------------------
   TIME STEP LENGTH  100.00      1.6667     2.77778E-02 1.15741E-03 3.16881E-06
 STRESS PERIOD TIME  100.00      1.6667     2.77778E-02 1.15741E-03 3.16881E-06
         TOTAL TIME  2100.0      35.000     0.58333     2.43056E-02 6.65450E-05


end timestep


start timestep kper="22" kstp="1" mode="normal"


 OUTPUT CONTROL FOR STRESS PERIOD 22 IS REPEATED USING SETTINGS FROM A PREVIOUS STRESS PERIOD.


 STRESS PERIOD 22 IS TRANSIENT


 REUSING WELS FROM LAST STRESS PERIOD

 REUSING CHDS FROM LAST STRESS PERIOD
 UBDSV1 SAVING           STO-SS ON UNIT   1024 AT TIME STEP      1, STRESS PERIOD     22
 UBDSV1 SAVING     FLOW-JA-FACE ON UNIT   1024 AT TIME STEP      1, STRESS PERIOD     22
 UBDSV06 SAVING       DATA-SPDIS IN MODEL GWF-P09-MF6      PACKAGE NPF             CONNECTED TO MODEL GWF-P09-MF6      PACKAGE NPF              ON UNIT   1024 AT TIME STEP      1, STRESS PERIOD     22
 UBDSV06 SAVING              WEL IN MODEL GWF-P09-MF6      PACKAGE GWF-P09-MF6     CONNECTED TO MODEL GWF-P09-MF6      PACKAGE WEL-1            ON UNIT   1024 AT TIME STEP      1, STRESS PERIOD     22
 UBDSV06 SAVING              CHD IN MODEL GWF-P09-MF6      PACKAGE GWF-P09-MF6     CONNECTED TO MODEL GWF-P09-MF6      PACKAGE CHD-1            ON UNIT   1024 AT TIME STEP      1, STRESS PERIOD     22

 WEL PACKAGE (WEL-1) FLOW RATES   PERIOD     22   STEP        1
 -----------------------------------------------
   NUMBER   CELLID                    RATE      
 -----------------------------------------------
     1      (1,4,7)               1.00000000E-03
     2      (1,11,7)             -1.89000000E-02
 -----------------------------------------------



1
  HEAD IN LAYER   1 AT END OF TIME STEP   1 IN STRESS PERIOD   22
  ---------------------------------------------------------------------------

                1               2               3               4               5               6               7               8               9              10
               11              12              13              14
 ................................................................................................................................................................
   1      250.000         250.000         250.000         250.000         250.000         250.000         250.000         250.000         250.000         250.000    
          250.000         250.000         250.000         250.000    
   2      172.398         172.520         172.635         172.703         172.730         172.720         172.655         172.500         172.293         172.147    
          172.070         172.037         172.024         172.020    
   3      107.355         107.827         108.202         108.398         108.468         108.441         108.269         107.775         107.071         106.631    
          106.425         106.343         106.313         106.304    
   4      61.4005         63.1273         64.1515         64.5960         64.7356         64.6767         64.3626         63.0256         60.8207         59.7474    
          59.3284         59.1806         59.1322         59.1183    
   5      33.4968         39.9117         42.1863         42.9669         43.1716         43.0178         42.2352         39.7030         32.6347         30.6321    
          30.0289         29.8434         29.7871         29.7716    
   6      15.1469        0.129190        0.102354        0.103777        0.104174        0.104033        0.102812        0.128200         14.5928         14.0982    
          13.8359         13.7325         13.6971         13.6867    
   7      6.30876        1.166853E-02    1.011255E-04    9.321459E-05    9.267790E-05    9.119806E-05    9.726952E-05    1.120814E-02     6.01275         5.91350    
          5.84271         5.81025         5.79838         5.79488    
   8      2.39195        4.115686E-03   -1.664349E-04   -6.362231E-04   -1.486792E-03   -2.820475E-03   -3.952669E-03    9.615774E-04     2.15285         2.22166    
          2.25966         2.27724         2.28500         2.28792    
   9     0.690832        0.170081       -5.313521E-02   -0.261234       -0.561183       -0.945795        -1.18614       -0.712806        0.270640        0.635334    
         0.785642        0.848683        0.874317        0.883343    
  10     0.245367        0.100408       -4.648018E-02   -0.270869       -0.678961        -1.35749        -2.13809        -1.24122       -0.393744        6.820366E-02
         0.287637        0.385091        0.426087        0.440937    
  11     0.237175        0.181695        7.453249E-02   -0.157756       -0.681763        -1.89044        -4.98373        -1.81007       -0.516183        6.460613E-02
         0.330531        0.451871        0.506368        0.527649    
  12     0.528872        0.511959        0.458725        0.314294       -1.111464E-02   -0.609779        -1.34478       -0.484171        0.238341        0.676842    
         0.919799         1.05203         1.12317         1.15532    
  13      1.25379         1.28141         1.31368         1.31121         1.23328         1.07878        0.988574         1.35272         1.77756         2.11538    
          2.35694         2.52600         2.63882         2.69747    
  14      2.72172         2.82615         2.99756         3.19071         3.37347         3.54742         3.77190         4.13853         4.54975         4.93552    
          5.27331         5.55690         5.77309         5.89510    
  15      5.34027         5.59082         6.00288         6.49414         7.01518         7.55068         8.11450         8.72603         9.35718         9.97743    
          10.5661         11.0994         11.5334         11.7928    
  16      9.40062         9.93752         10.7652         11.7241         12.7360         13.7701         14.8208         15.8885         16.9626         18.0284    
          19.0670         20.0435         20.8807         21.4215    
  17      14.6819         15.8080         17.3139         18.9541         20.6422         22.3481         24.0627         25.7832         27.5051         29.2211    
          30.9181         32.5644         34.0737         35.2013    
  18      20.0000         22.5000         25.0000         27.5000         30.0000         32.5000         35.0000         37.5000         40.0000         42.5000    
          45.0000         47.5000         50.0000         52.5000    

 HEAD WILL BE SAVED ON UNIT 1025 AT END OF TIME STEP    1, STRESS PERIOD   22


  VOLUME BUDGET FOR ENTIRE MODEL AT END OF TIME STEP    1, STRESS PERIOD  22
  ---------------------------------------------------------------------------------------------------

     CUMULATIVE VOLUME      L**3       RATES FOR THIS TIME STEP      L**3/T          PACKAGE NAME    
     ------------------                 ------------------------                     ----------------

           IN:                                      IN:
           ---                                      ---
              STO-SS =          24.0096                STO-SS =       2.5431E-03     STORAGE                          
                 WEL =           2.2000                   WEL =       1.0000E-03     WEL-1                            
                 CHD =        6250.6777                   CHD =           1.8351     CHD-1                            

            TOTAL IN =        6276.8873              TOTAL IN =           1.8386

          OUT:                                     OUT:
          ----                                     ----
              STO-SS =        6235.3073                STO-SS =           1.8197     STORAGE                          
                 WEL =          41.5800                   WEL =       1.8900E-02     WEL-1                            
                 CHD =           0.0000                   CHD =           0.0000     CHD-1                            

           TOTAL OUT =        6276.8873             TOTAL OUT =           1.8386

            IN - OUT =       8.6547E-07              IN - OUT =       3.3857E-10

 PERCENT DISCREPANCY =           0.00     PERCENT DISCREPANCY =           0.00




         TIME SUMMARY AT END OF TIME STEP    1 IN STRESS PERIOD   22
                    SECONDS     MINUTES      HOURS       DAYS        YEARS
                    -----------------------------------------------------------
   TIME STEP LENGTH  100.00      1.6667     2.77778E-02 1.15741E-03 3.16881E-06
 STRESS PERIOD TIME  100.00      1.6667     2.77778E-02 1.15741E-03 3.16881E-06
         TOTAL TIME  2200.0      36.667     0.61111     2.54630E-02 6.97138E-05


end timestep


start timestep kper="23" kstp="1" mode="normal"


 OUTPUT CONTROL FOR STRESS PERIOD 23 IS REPEATED USING SETTINGS FROM A PREVIOUS STRESS PERIOD.


 STRESS PERIOD 23 IS TRANSIENT


 REUSING WELS FROM LAST STRESS PERIOD

 REUSING CHDS FROM LAST STRESS PERIOD
 UBDSV1 SAVING           STO-SS ON UNIT   1024 AT TIME STEP      1, STRESS PERIOD     23
 UBDSV1 SAVING     FLOW-JA-FACE ON UNIT   1024 AT TIME STEP      1, STRESS PERIOD     23
 UBDSV06 SAVING       DATA-SPDIS IN MODEL GWF-P09-MF6      PACKAGE NPF             CONNECTED TO MODEL GWF-P09-MF6      PACKAGE NPF              ON UNIT   1024 AT TIME STEP      1, STRESS PERIOD     23
 UBDSV06 SAVING              WEL IN MODEL GWF-P09-MF6      PACKAGE GWF-P09-MF6     CONNECTED TO MODEL GWF-P09-MF6      PACKAGE WEL-1            ON UNIT   1024 AT TIME STEP      1, STRESS PERIOD     23
 UBDSV06 SAVING              CHD IN MODEL GWF-P09-MF6      PACKAGE GWF-P09-MF6     CONNECTED TO MODEL GWF-P09-MF6      PACKAGE CHD-1            ON UNIT   1024 AT TIME STEP      1, STRESS PERIOD     23

 WEL PACKAGE (WEL-1) FLOW RATES   PERIOD     23   STEP        1
 -----------------------------------------------
   NUMBER   CELLID                    RATE      
 -----------------------------------------------
     1      (1,4,7)               1.00000000E-03
     2      (1,11,7)             -1.89000000E-02
 -----------------------------------------------



1
  HEAD IN LAYER   1 AT END OF TIME STEP   1 IN STRESS PERIOD   23
  ---------------------------------------------------------------------------

                1               2               3               4               5               6               7               8               9              10
               11              12              13              14
 ................................................................................................................................................................
   1      250.000         250.000         250.000         250.000         250.000         250.000         250.000         250.000         250.000         250.000    
          250.000         250.000         250.000         250.000    
   2      174.157         174.295         174.426         174.505         174.535         174.521         174.443         174.265         174.030         173.861    
          173.772         173.732         173.717         173.712    
   3      110.112         110.635         111.058         111.281         111.360         111.322         111.116         110.561         109.775         109.277    
          109.040         108.944         108.909         108.898    
   4      64.2510         66.1265         67.2605         67.7609         67.9164         67.8383         67.4590         65.9879         63.5782         62.3867    
          61.9123         61.7414         61.6842         61.6674    
   5      35.8525         42.7068         45.1887         46.0579         46.2859         46.1044         45.2215         42.4510         34.8708         32.6842    
          32.0108         31.7986         31.7325         31.7139    
   6      16.5809        0.146540        0.115616        0.117289        0.117753        0.117559        0.116083        0.145287         15.9396         15.3906    
          15.0935         14.9737         14.9317         14.9191    
   7      7.07071        1.376311E-02    1.201150E-04    1.103662E-04    1.097576E-04    1.080377E-04    1.156388E-04    1.320094E-02     6.72611         6.61321    
          6.53076         6.49193         6.47730         6.47287    
   8      2.74396        4.982888E-03   -1.796442E-04   -7.167906E-04   -1.659533E-03   -3.108184E-03   -4.307874E-03    1.483057E-03     2.47859         2.55235    
          2.59228         2.61059         2.61873         2.62186    
   9     0.810870        0.208796       -4.749724E-02   -0.274496       -0.588837       -0.981766        -1.21613       -0.707895        0.372145        0.768842    
         0.931992         1.00092         1.02934         1.03949    
  10     0.294214        0.126074       -3.863656E-02   -0.277677       -0.699028        -1.38633        -2.16458        -1.24780       -0.362317        0.124630    
         0.358808        0.464582        0.509937        0.526634    
  11     0.277089        0.214046        9.776725E-02   -0.144737       -0.679407        -1.89562        -4.98783        -1.80107       -0.485029        0.115996    
         0.396874        0.527946        0.588056        0.611864    
  12     0.593795        0.574731        0.518027        0.368697        3.773841E-02   -0.564089        -1.29555       -0.422545        0.318630        0.776150    
          1.03483         1.17839         1.25667         1.29224    
  13      1.37002         1.39891         1.43323         1.43284         1.35718         1.20706         1.12618         1.50590         1.95065         2.30887    
          2.56833         2.75134         2.87366         2.93713    
  14      2.90595         3.01484         3.19420         3.39742         3.59173         3.77929         4.02084         4.40855         4.84348         5.25307    
          5.61245         5.91380         6.14270         6.27140    
  15      5.58282         5.84043         6.26533         6.77337         7.31373         7.87063         8.45821         9.09584         9.75444         10.4018    
          11.0154         11.5700         12.0195         12.2873    
  16      9.64756         10.1922         11.0339         12.0113         13.0446         14.1019         15.1773         16.2710         17.3717         18.4635    
          19.5263         20.5235         21.3761         21.9253    
  17      14.8430         15.9743         17.4896         19.1423         20.8448         22.5662         24.2971         26.0344         27.7732         29.5058    
          31.2183         32.8780         34.3973         35.5302    
  18      20.0000         22.5000         25.0000         27.5000         30.0000         32.5000         35.0000         37.5000         40.0000         42.5000    
          45.0000         47.5000         50.0000         52.5000    

 HEAD WILL BE SAVED ON UNIT 1025 AT END OF TIME STEP    1, STRESS PERIOD   23


  VOLUME BUDGET FOR ENTIRE MODEL AT END OF TIME STEP    1, STRESS PERIOD  23
  ---------------------------------------------------------------------------------------------------

     CUMULATIVE VOLUME      L**3       RATES FOR THIS TIME STEP      L**3/T          PACKAGE NAME    
     ------------------                 ------------------------                     ----------------

           IN:                                      IN:
           ---                                      ---
              STO-SS =          24.2154                STO-SS =       2.0585E-03     STORAGE                          
                 WEL =           2.3000                   WEL =       1.0000E-03     WEL-1                            
                 CHD =        6430.0687                   CHD =           1.7939     CHD-1                            

            TOTAL IN =        6456.5841              TOTAL IN =           1.7970

          OUT:                                     OUT:
          ----                                     ----
              STO-SS =        6413.1141                STO-SS =           1.7781     STORAGE                          
                 WEL =          43.4700                   WEL =       1.8900E-02     WEL-1                            
                 CHD =           0.0000                   CHD =           0.0000     CHD-1                            

           TOTAL OUT =        6456.5841             TOTAL OUT =           1.7970

            IN - OUT =       8.9914E-07              IN - OUT =       3.3672E-10

 PERCENT DISCREPANCY =           0.00     PERCENT DISCREPANCY =           0.00




         TIME SUMMARY AT END OF TIME STEP    1 IN STRESS PERIOD   23
                    SECONDS     MINUTES      HOURS       DAYS        YEARS
                    -----------------------------------------------------------
   TIME STEP LENGTH  100.00      1.6667     2.77778E-02 1.15741E-03 3.16881E-06
 STRESS PERIOD TIME  100.00      1.6667     2.77778E-02 1.15741E-03 3.16881E-06
         TOTAL TIME  2300.0      38.333     0.63889     2.66204E-02 7.28826E-05


end timestep


start timestep kper="24" kstp="1" mode="normal"


 OUTPUT CONTROL FOR STRESS PERIOD 24 IS REPEATED USING SETTINGS FROM A PREVIOUS STRESS PERIOD.


 STRESS PERIOD 24 IS TRANSIENT


 REUSING WELS FROM LAST STRESS PERIOD

 REUSING CHDS FROM LAST STRESS PERIOD
 UBDSV1 SAVING           STO-SS ON UNIT   1024 AT TIME STEP      1, STRESS PERIOD     24
 UBDSV1 SAVING     FLOW-JA-FACE ON UNIT   1024 AT TIME STEP      1, STRESS PERIOD     24
 UBDSV06 SAVING       DATA-SPDIS IN MODEL GWF-P09-MF6      PACKAGE NPF             CONNECTED TO MODEL GWF-P09-MF6      PACKAGE NPF              ON UNIT   1024 AT TIME STEP      1, STRESS PERIOD     24
 UBDSV06 SAVING              WEL IN MODEL GWF-P09-MF6      PACKAGE GWF-P09-MF6     CONNECTED TO MODEL GWF-P09-MF6      PACKAGE WEL-1            ON UNIT   1024 AT TIME STEP      1, STRESS PERIOD     24
 UBDSV06 SAVING              CHD IN MODEL GWF-P09-MF6      PACKAGE GWF-P09-MF6     CONNECTED TO MODEL GWF-P09-MF6      PACKAGE CHD-1            ON UNIT   1024 AT TIME STEP      1, STRESS PERIOD     24

 WEL PACKAGE (WEL-1) FLOW RATES   PERIOD     24   STEP        1
 -----------------------------------------------
   NUMBER   CELLID                    RATE      
 -----------------------------------------------
     1      (1,4,7)               1.00000000E-03
     2      (1,11,7)             -1.89000000E-02
 -----------------------------------------------



1
  HEAD IN LAYER   1 AT END OF TIME STEP   1 IN STRESS PERIOD   24
  ---------------------------------------------------------------------------

                1               2               3               4               5               6               7               8               9              10
               11              12              13              14
 ................................................................................................................................................................
   1      250.000         250.000         250.000         250.000         250.000         250.000         250.000         250.000         250.000         250.000    
          250.000         250.000         250.000         250.000    
   2      175.819         175.972         176.121         176.211         176.244         176.226         176.134         175.931         175.666         175.474    
          175.371         175.324         175.305         175.299    
   3      112.754         113.329         113.801         114.053         114.141         114.092         113.850         113.230         112.359         111.800    
          111.530         111.418         111.376         111.363    
   4      67.0379         69.0623         70.3084         70.8672         71.0391         70.9403         70.4922         68.8827         66.2651         64.9516    
          64.4190         64.2232         64.1562         64.1361    
   5      38.2050         45.4906         48.1811         49.1415         49.3937         49.1827         48.1954         45.1830         37.0962         34.7237    
          33.9774         33.7367         33.6600         33.6379    
   6      18.0467        0.165127        0.129754        0.131703        0.132241        0.131985        0.130225        0.163569         17.3113         16.7063    
          16.3726         16.2351         16.1858         16.1707    
   7      7.86887        1.609392E-02    1.415206E-04    1.296246E-04    1.289406E-04    1.269546E-04    1.363559E-04    1.541435E-02     7.47125         7.34402    
          7.24902         7.20315         7.18538         7.17986    
   8      3.12163        5.973800E-03   -1.902555E-04   -8.006774E-04   -1.839679E-03   -3.405357E-03   -4.670117E-03    2.111050E-03     2.82859         2.90750    
          2.94924         2.96811         2.97654         2.97983    
   9     0.942827        0.252997       -3.916680E-02   -0.285891       -0.614251        -1.01438        -1.24111       -0.695267        0.487138        0.917569    
          1.09406         1.16903         1.20032         1.21164    
  10     0.349087        0.155690       -2.816762E-02   -0.282133       -0.716127        -1.41104        -2.18565        -1.24755       -0.322198        0.190588    
         0.439864        0.554170        0.604042        0.622672    
  11     0.321012        0.249769        0.123963       -0.128572       -0.673087        -1.89567        -4.98578        -1.78535       -0.446797        0.174594    
         0.470548        0.611534        0.677434        0.703876    
  12     0.662165        0.640767        0.580539        0.426634        9.089837E-02   -0.513093        -1.24027       -0.354617        0.405143        0.881578    
          1.15603         1.31106         1.39665         1.43575    
  13      1.48855         1.51860         1.55490         1.55673         1.48379         1.33863         1.26749         1.66285         2.12733         2.50580    
          2.78314         2.98015         3.11203         3.18035    
  14      3.08904         3.20217         3.38913         3.60214         3.80783         4.00896         4.26745         4.67594         5.13419         5.56720    
          5.94786         6.26670         6.50810         6.64334    
  15      5.81856         6.08279         6.51977         7.04370         7.60250         8.17999         8.79051         9.45336         10.1385         10.8121    
          11.4499         12.0248         12.4893         12.7649    
  16      9.88320         10.4349         11.2896         12.2844         13.3376         14.4168         15.5157         16.6340         17.7599         18.8764    
          19.9620         20.9788         21.8459         22.4029    
  17      14.9948         16.1307         17.6548         19.3189         21.0347         22.7705         24.5166         26.2697         28.0244         29.7726    
          31.4996         33.1716         34.7002         35.8381    
  18      20.0000         22.5000         25.0000         27.5000         30.0000         32.5000         35.0000         37.5000         40.0000         42.5000    
          45.0000         47.5000         50.0000         52.5000    

 HEAD WILL BE SAVED ON UNIT 1025 AT END OF TIME STEP    1, STRESS PERIOD   24


  VOLUME BUDGET FOR ENTIRE MODEL AT END OF TIME STEP    1, STRESS PERIOD  24
  ---------------------------------------------------------------------------------------------------

     CUMULATIVE VOLUME      L**3       RATES FOR THIS TIME STEP      L**3/T          PACKAGE NAME    
     ------------------                 ------------------------                     ----------------

           IN:                                      IN:
           ---                                      ---
              STO-SS =          24.3782                STO-SS =       1.6271E-03     STORAGE                          
                 WEL =           2.4000                   WEL =       1.0000E-03     WEL-1                            
                 CHD =        6605.5786                   CHD =           1.7551     CHD-1                            

            TOTAL IN =        6632.3568              TOTAL IN =           1.7577

          OUT:                                     OUT:
          ----                                     ----
              STO-SS =        6586.9968                STO-SS =           1.7388     STORAGE                          
                 WEL =          45.3600                   WEL =       1.8900E-02     WEL-1                            
                 CHD =           0.0000                   CHD =           0.0000     CHD-1                            

           TOTAL OUT =        6632.3568             TOTAL OUT =           1.7577

            IN - OUT =       9.3255E-07              IN - OUT =       3.3412E-10

 PERCENT DISCREPANCY =           0.00     PERCENT DISCREPANCY =           0.00




         TIME SUMMARY AT END OF TIME STEP    1 IN STRESS PERIOD   24
                    SECONDS     MINUTES      HOURS       DAYS        YEARS
                    -----------------------------------------------------------
   TIME STEP LENGTH  100.00      1.6667     2.77778E-02 1.15741E-03 3.16881E-06
 STRESS PERIOD TIME  100.00      1.6667     2.77778E-02 1.15741E-03 3.16881E-06
         TOTAL TIME  2400.0      40.000     0.66667     2.77778E-02 7.60514E-05


end timestep

