                                   MODFLOW 6
                U.S. GEOLOGICAL SURVEY MODULAR HYDROLOGIC MODEL
                       GROUNDWATER TRANSPORT MODEL (GWT)
                            VERSION 6.4.2 06/28/2023

   MODFLOW 6 compiled Jul 05 2023 20:29:14 with Intel(R) Fortran Intel(R) 64
   Compiler Classic for applications running on Intel(R) 64, Version 2021.7.0
                             Build 20220726_000000

This software has been approved for release by the U.S. Geological 
Survey (USGS). Although the software has been subjected to rigorous 
review, the USGS reserves the right to update the software as needed 
pursuant to further analysis and review. No warranty, expressed or 
implied, is made by the USGS or the U.S. Government as to the 
functionality of the software and related material nor shall the 
fact of release constitute any such warranty. Furthermore, the 
software is released on condition that neither the USGS nor the U.S. 
Government shall be held liable for any damages resulting from its 
authorized or unauthorized use. Also refer to the USGS Water 
Resources Software User Rights Notice for complete use, copyright, 
and distribution information.


As a work of the United States Government, this USGS product is 
in the public domain within the United States. You can copy, 
modify, distribute, and perform the work, even for commercial 
purposes, all without asking permission. Additionally, USGS 
waives copyright and related rights in the work worldwide 
through CC0 1.0 Universal Public Domain Dedication 
(https://creativecommons.org/publicdomain/zero/1.0/).

The following GNU Lesser General Public License (LGPL) libraries
are used in this USGS product:

    SPARSKIT version 2.0
      ilut, luson, and qsplit 
      (https://www-users.cse.umn.edu/~saad/software/SPARSKIT/)

    RCM - Reverse Cuthill McKee Ordering
      (https://people.math.sc.edu/Burkardt/f_src/rcm/rcm.html)

    BLAS - Basic Linear Algebra Subprograms Level 1
      (https://people.math.sc.edu/Burkardt/f_src/blas1_d/blas1_d.html)

    SPARSEKIT - Sparse Matrix Utility Package
      amux, dperm, dvperm, rperm, and cperm
      (https://people.sc.fsu.edu/~jburkardt/f77_src/sparsekit/sparsekit.html)

The following BSD-3 License libraries are used in this USGS product:

    Modern Fortran DAG Library
      Copyright (c) 2018, Jacob Williams
      All rights reserved.
      (https://github.com/jacobwilliams/daglib)

MODFLOW 6 compiler options: -Imac/obj_mf6 -O2 -no-heap-arrays -fpe0
-traceback -fpp -module mac/mod_mf6/ -c -o mac/obj_mf6/compilerversion.o

System command used to initiate simulation:
mf6

MODFLOW was compiled using uniform precision.

Real Variables
  KIND: 8
  TINY (smallest non-zero value):    2.225074-308
  HUGE (largest value):    1.797693+308
  PRECISION: 15
  SIZE IN BITS: 64

Integer Variables
  KIND: 4
  HUGE (largest value): 2147483647
  SIZE IN BITS: 32

Long Integer Variables
  KIND: 8
  HUGE (largest value): 9223372036854775807
  SIZE IN BITS: 64

Logical Variables
  KIND: 4
  SIZE IN BITS: 32
 
 NAMEFILE OPTIONS:
    FLOWS WILL BE SAVED TO BUDGET FILE SPECIFIED IN OUTPUT CONTROL
 END NAMEFILE OPTIONS:

 DIS -- STRUCTURED GRID DISCRETIZATION PACKAGE, VERSION 2 : 3/27/2014 - INPUT READ FROM MEMPATH: __INPUT__/GWT-P09-MF6/DIS                         


 DSP-- DISPERSION PACKAGE, VERSION 1, 1/24/2018 INPUT READ FROM MEMPATH: __INPUT__/GWT-P09-MF6/DSP                         


 Setting Discretization Options
 End Setting Discretization Options

 Setting Discretization Dimensions
    NLAY = 1
    NROW = 18
    NCOL = 14
 End Setting Discretization Dimensions

 Setting Discretization Griddata
    DELR set from input file
    DELC set from input file
    TOP set from input file
    BOTM set from input file
    IDOMAIN set from input file
 End Setting Discretization Griddata


 FMI -- FLOW MODEL INTERFACE, VERSION 1, 8/29/2017
  FLOWS PROVIDED BY A GWF MODEL IN THIS SIMULATION

 ADV-- ADVECTION PACKAGE, VERSION 1, 8/25/2017 INPUT READ FROM UNIT 1014


 # File generated by Flopy version 3.7.0.dev0 on 05/14/2024 at 15:14:54.
 PROCESSING ADVECTION OPTIONS
    ADVECTION WEIGHTING SCHEME HAS BEEN SET TO: UPSTREAM
 END OF ADVECTION OPTIONS
 Setting DSP Options
    XT3D formulation [0=INACTIVE, 1=ACTIVE, 3=ACTIVE RHS] set to: 1
 End Setting DSP Options

 Setting DSP Griddata
    ALH set from input file
    ATH1 set from input file
 End Setting DSP Griddata


 IC -- INITIAL CONDITIONS PACKAGE, VERSION 8, 3/28/2015 INPUT READ FROM UNIT 1012
 # File generated by Flopy version 3.7.0.dev0 on 05/14/2024 at 15:14:54.
 PROCESSING GRIDDATA

 INITIAL CONCENTRATION =   0.000000    
 END PROCESSING GRIDDATA

 MST -- MOBILE STORAGE AND TRANSFER PACKAGE, VERSION 1, 7/29/2020 INPUT READ FROM UNIT 1013


 # File generated by Flopy version 3.7.0.dev0 on 05/14/2024 at 15:14:54.
 PROCESSING MOBILE STORAGE AND TRANSFER OPTIONS
 END OF MOBILE STORAGE AND TRANSFER OPTIONS
 PROCESSING GRIDDATA

   MOBILE DOMAIN POROSITY =  0.3000000E-02
 END PROCESSING GRIDDATA

 SSM -- SOURCE-SINK MIXING PACKAGE, VERSION 1, 8/25/2017 INPUT READ FROM UNIT 1016


 # File generated by Flopy version 3.7.0.dev0 on 05/14/2024 at 15:14:54.
 PROCESSING SSM OPTIONS
    SSM FLOW INFORMATION WILL BE PRINTED TO LISTING FILE WHENEVER ICBCFL IS NOT ZERO.
 END OF SSM OPTIONS
 PROCESSING SOURCES
 AUX SOURCE DETECTED.
    USING AUX COLUMN 1 IN PACKAGE WEL-1
 AUX SOURCE DETECTED.
    USING AUX COLUMN 1 IN PACKAGE CHD-1
 END PROCESSING SOURCES
 OPTIONAL FILEINPUT BLOCK NOT FOUND.  CONTINUING.
      THE LAST TIME STEP WILL BE PRINTED
      THE LAST TIME STEP WILL BE PRINTED
 # File generated by Flopy version 3.7.0.dev0 on 05/14/2024 at 15:14:54.

 PROCESSING OC OPTIONS

    BUDGET INFORMATION WILL BE WRITTEN TO:
      UNIT NUMBER: 1026
      FILE NAME: gwt-p09-mf6.cbc

 OPENED gwt-p09-mf6.cbc
 FILE TYPE:DATA(BINARY)   UNIT 1026   STATUS:REPLACE             
 FORMAT:UNFORMATTED            ACCESS:STREAM              
 ACTION:READWRITE           

    CONCENTRATION INFORMATION WILL BE WRITTEN TO:
      UNIT NUMBER: 1027
      FILE NAME: gwt-p09-mf6.ucn

 OPENED gwt-p09-mf6.ucn
 FILE TYPE:DATA(BINARY)   UNIT 1027   STATUS:REPLACE             
 FORMAT:UNFORMATTED            ACCESS:STREAM              
 ACTION:READWRITE           

 END OF OC OPTIONS

start timestep kper="1" kstp="1" mode="normal"


 BEGIN READING OUTPUT CONTROL FOR STRESS PERIOD 1
      THE LAST TIME STEP WILL BE SAVED
      THE LAST TIME STEP WILL BE SAVED
      THE LAST TIME STEP WILL BE PRINTED
      THE LAST TIME STEP WILL BE PRINTED

 END READING OUTPUT CONTROL FOR STRESS PERIOD 1

 XT3D is active.


 UBDSV1 SAVING     FLOW-JA-FACE ON UNIT   1026 AT TIME STEP      1, STRESS PERIOD      1
 UBDSV1 SAVING  STORAGE-AQUEOUS ON UNIT   1026 AT TIME STEP      1, STRESS PERIOD      1
 UBDSV06 SAVING  SOURCE-SINK MIX IN MODEL GWT-P09-MF6      PACKAGE GWT-P09-MF6     CONNECTED TO MODEL GWT-P09-MF6      PACKAGE SSM              ON UNIT   1026 AT TIME STEP      1, STRESS PERIOD      1

 SSM PACKAGE (SSM) FLOW RATES   PERIOD      1   STEP        1
 ------------------------------------------------------------------------------------------------
   NUMBER   CELLID                   BOUND Q        SSM CONC          RATE         PACKAGE NAME  
 ------------------------------------------------------------------------------------------------
     1      (1,4,7)               1.00000000E-03  57.870000       5.78700000E-02      WEL-1      
     2      (1,11,7)             -1.89000000E-02  5.31355472E-46 -1.00426184E-47      WEL-1      
     1      (1,1,1)               0.32599175      0.0000000       0.0000000           CHD-1      
     2      (1,18,1)              2.23494395E-02  0.0000000       0.0000000           CHD-1      
     3      (1,1,2)               0.32599174      0.0000000       0.0000000           CHD-1      
     4      (1,18,2)              2.93349287E-02  0.0000000       0.0000000           CHD-1      
     5      (1,1,3)               0.32599174      0.0000000       0.0000000           CHD-1      
     6      (1,18,3)              3.25987540E-02  0.0000000       0.0000000           CHD-1      
     7      (1,1,4)               0.32599173      0.0000000       0.0000000           CHD-1      
     8      (1,18,4)              3.58590514E-02  0.0000000       0.0000000           CHD-1      
     9      (1,1,5)               0.32599169      0.0000000       0.0000000           CHD-1      
     10     (1,18,5)              3.91190064E-02  0.0000000       0.0000000           CHD-1      
     11     (1,1,6)               0.32599149      0.0000000       0.0000000           CHD-1      
     12     (1,18,6)              4.23789283E-02  0.0000000       0.0000000           CHD-1      
     13     (1,1,7)               0.32599083      0.0000000       0.0000000           CHD-1      
     14     (1,18,7)              4.56388471E-02  0.0000000       0.0000000           CHD-1      
     15     (1,1,8)               0.32599149      0.0000000       0.0000000           CHD-1      
     16     (1,18,8)              4.88987638E-02  0.0000000       0.0000000           CHD-1      
     17     (1,1,9)               0.32599170      0.0000000       0.0000000           CHD-1      
     18     (1,18,9)              5.21586810E-02  0.0000000       0.0000000           CHD-1      
     19     (1,1,10)              0.32599174      0.0000000       0.0000000           CHD-1      
     20     (1,18,10)             5.54186019E-02  0.0000000       0.0000000           CHD-1      
     21     (1,1,11)              0.32599175      0.0000000       0.0000000           CHD-1      
     22     (1,18,11)             5.86785566E-02  0.0000000       0.0000000           CHD-1      
     23     (1,1,12)              0.32599175      0.0000000       0.0000000           CHD-1      
     24     (1,18,12)             6.19388539E-02  0.0000000       0.0000000           CHD-1      
     25     (1,1,13)              0.32599175      0.0000000       0.0000000           CHD-1      
     26     (1,18,13)             6.52026792E-02  0.0000000       0.0000000           CHD-1      
     27     (1,1,14)              0.32599175      0.0000000       0.0000000           CHD-1      
     28     (1,18,14)             7.21881684E-02  0.0000000       0.0000000           CHD-1      
 ------------------------------------------------------------------------------------------------



1
  CONCENTRATION IN LAYER   1 AT END OF TIME STEP   1 IN STRESS PERIOD    1
  ---------------------------------------------------------------------------

                1               2               3               4               5               6               7               8               9              10
               11              12              13              14
 ................................................................................................................................................................
   1     3.234233E-24    8.145038E-22    2.015787E-19    4.798284E-17    1.057006E-14    1.938505E-12    1.841468E-10    1.944336E-12    6.641645E-15    7.286143E-18
         9.674067E-23    7.051167E-27    2.030420E-29    7.497146E-32
   2     7.054427E-24    2.993238E-21    1.272915E-18    5.408419E-16    2.280504E-13    8.968458E-11    1.340554E-08    9.011144E-11    1.377810E-13    1.802624E-18
         3.764606E-23    2.652544E-26    6.282666E-29    1.563685E-31
   3     4.107783E-26    1.475098E-22    5.298867E-19    1.903387E-15    6.831140E-12    2.374843E-08    5.538909E-06    2.392244E-08    3.131063E-13    4.666282E-18
         1.276901E-22    5.603151E-27    1.553430E-30    2.743511E-33
   4     4.419500E-29    1.364688E-24    4.234864E-20    1.314339E-15    4.049154E-11    1.159448E-06    1.927769E-02    1.160229E-06    4.076068E-11    1.326367E-15
         4.280148E-20    1.379963E-24    4.448954E-29    1.439031E-33
   5    -1.691478E-36   -2.913442E-31   -8.517156E-26   -2.567715E-20   -7.596431E-15   -1.961625E-09    4.391267E-06   -2.151147E-09   -1.571264E-13   -2.786886E-18
        -1.024929E-23    2.092147E-28    9.583035E-33    3.233031E-37
   6    -2.887145E-41   -1.029109E-39    1.112393E-35    1.560390E-29    1.519688E-20   -2.894816E-16    2.909706E-13   -4.151093E-16    2.204808E-17    2.106889E-22
         1.959394E-27    7.048544E-33    2.202437E-37    7.531081E-42
   7    -7.781224E-47    5.453705E-48    9.878128E-47    1.138916E-38    1.307944E-31   -3.018257E-27    2.949974E-24    1.256907E-25    5.972056E-23   -1.963318E-27
         1.101329E-33    2.001866E-38    5.943425E-43    2.011906E-47
   8    -2.416910E-53    1.954297E-59    3.405274E-53    3.882381E-46   -3.495865E-41   -6.523527E-39    1.145690E-35   -3.862096E-34    2.322086E-29    2.224895E-32
        -1.178692E-36    1.718961E-43    7.618738E-49    8.962798E-54
   9    -8.789176E-61    9.204720E-63    3.174183E-55   -2.512926E-49   -3.290837E-46   -1.109888E-45    4.953193E-41   -8.492341E-37    1.017574E-35    1.894128E-37
         2.269542E-41   -3.028948E-46    2.158556E-53    1.587155E-59
  10    -2.970773E-69    7.941962E-65   -7.105555E-58   -9.920773E-54   -8.541680E-52    1.516767E-47    9.779947E-43   -1.335861E-41    1.648791E-41    3.551297E-43
         5.942933E-46    5.797522E-51   -3.831979E-57    3.488174E-64
  11     1.783015E-74   -1.232404E-67   -1.395255E-62   -2.926436E-60    1.328239E-53    1.127323E-48    5.313555E-46   -7.450224E-46    7.744321E-47    3.929676E-49
         5.654839E-52    1.557496E-55    2.151767E-60   -6.855349E-67
  12    -1.351425E-76   -3.343138E-71   -5.872541E-68    1.170695E-61    3.200319E-55    9.167496E-54    8.697385E-52   -5.839131E-51   -1.482380E-52    2.134069E-54
         2.025560E-57    2.405269E-60    1.344016E-64    5.629872E-70
  13     1.620596E-80    7.113696E-78    9.753968E-70    1.267683E-62    1.428737E-60    3.200389E-58    1.053773E-56   -1.267798E-56   -9.778759E-58   -7.033795E-60
         3.000957E-62    6.553684E-66    3.350025E-69    1.514991E-73
  14    -2.676757E-83   -5.547183E-77   -9.189321E-71    1.229630E-68    1.714416E-65    1.889088E-63    4.436035E-62   -2.193476E-62   -1.740895E-63   -2.988372E-65
        -7.382601E-68    3.356084E-70    6.871748E-74    3.253276E-77
  15     3.352193E-83    7.570152E-78   -1.371475E-75   -1.418866E-72   -8.111822E-71    5.604356E-69    2.492023E-67   -1.100510E-67   -1.159555E-68   -3.358426E-70
        -3.238454E-72   -4.703369E-75    3.002093E-77    6.468224E-81
  16    -5.728874E-84    1.232935E-81    1.029248E-78    1.623508E-77   -7.074895E-75    2.095235E-74    1.018177E-71   -4.557128E-72   -6.248121E-73   -2.588203E-74
        -4.403350E-76   -2.875469E-78   -2.074531E-81    2.449621E-83
  17    -1.155562E-86   -6.218420E-84    1.682137E-82    4.994516E-80   -2.276040E-78   -5.876198E-77    3.580711E-75   -1.626185E-75   -2.812050E-76   -1.541606E-77
        -3.836844E-79   -4.578862E-81   -2.269083E-83   -1.348357E-86
  18     5.942324E-88   -3.041280E-86   -4.262344E-84    3.096489E-82    1.044211E-81   -4.600129E-79    7.770074E-78   -3.293697E-78   -8.555285E-79   -6.995436E-80
        -2.718236E-81   -5.547130E-83   -5.900518E-85   -3.051879E-87

 CONCENTRATION WILL BE SAVED ON UNIT 1027 AT END OF TIME STEP    1, STRESS PERIOD    1


  MASS BUDGET FOR ENTIRE MODEL AT END OF TIME STEP    1, STRESS PERIOD   1
  ---------------------------------------------------------------------------------------------------

     CUMULATIVE MASS      M       RATES FOR THIS TIME STEP      M/T          PACKAGE NAME    
     ------------------                 ------------------------                     ----------------

           IN:                                      IN:
           ---                                      ---
     STORAGE-AQUEOUS =       1.2339E-06       STORAGE-AQUEOUS =       1.2339E-08     MST                              
                 WEL =           5.7870                   WEL =       5.7870E-02     SSM_WEL-1                        
                 CHD =           0.0000                   CHD =           0.0000     SSM_CHD-1                        

            TOTAL IN =           5.7870              TOTAL IN =       5.7870E-02

          OUT:                                     OUT:
          ----                                     ----
     STORAGE-AQUEOUS =           5.7870       STORAGE-AQUEOUS =       5.7870E-02     MST                              
                 WEL =       1.0043E-45                   WEL =       1.0043E-47     SSM_WEL-1                        
                 CHD =           0.0000                   CHD =           0.0000     SSM_CHD-1                        

           TOTAL OUT =           5.7870             TOTAL OUT =       5.7870E-02

            IN - OUT =       1.8367E-09              IN - OUT =       1.8367E-11

 PERCENT DISCREPANCY =           0.00     PERCENT DISCREPANCY =           0.00




         TIME SUMMARY AT END OF TIME STEP    1 IN STRESS PERIOD    1
                    SECONDS     MINUTES      HOURS       DAYS        YEARS
                    -----------------------------------------------------------
   TIME STEP LENGTH  100.00      1.6667     2.77778E-02 1.15741E-03 3.16881E-06
 STRESS PERIOD TIME  100.00      1.6667     2.77778E-02 1.15741E-03 3.16881E-06
         TOTAL TIME  100.00      1.6667     2.77778E-02 1.15741E-03 3.16881E-06


end timestep


start timestep kper="2" kstp="1" mode="normal"


 END OF FILE DETECTED IN OUTPUT CONTROL.
 CURRENT OUTPUT CONTROL SETTINGS WILL BE 
 REPEATED UNTIL THE END OF THE SIMULATION.

 OUTPUT CONTROL FOR STRESS PERIOD 2 IS REPEATED USING SETTINGS FROM A PREVIOUS STRESS PERIOD.
 UBDSV1 SAVING     FLOW-JA-FACE ON UNIT   1026 AT TIME STEP      1, STRESS PERIOD      2
 UBDSV1 SAVING  STORAGE-AQUEOUS ON UNIT   1026 AT TIME STEP      1, STRESS PERIOD      2
 UBDSV06 SAVING  SOURCE-SINK MIX IN MODEL GWT-P09-MF6      PACKAGE GWT-P09-MF6     CONNECTED TO MODEL GWT-P09-MF6      PACKAGE SSM              ON UNIT   1026 AT TIME STEP      1, STRESS PERIOD      2

 SSM PACKAGE (SSM) FLOW RATES   PERIOD      2   STEP        1
 ------------------------------------------------------------------------------------------------
   NUMBER   CELLID                   BOUND Q        SSM CONC          RATE         PACKAGE NAME  
 ------------------------------------------------------------------------------------------------
     1      (1,4,7)               1.00000000E-03  0.0000000       0.0000000           WEL-1      
     2      (1,11,7)             -1.89000000E-02  1.41089073E-42 -2.66658347E-44      WEL-1      
     1      (1,1,1)               0.29227625      0.0000000       0.0000000           CHD-1      
     2      (1,18,1)              1.95832990E-02  0.0000000       0.0000000           CHD-1      
     3      (1,1,2)               0.29227621      0.0000000       0.0000000           CHD-1      
     4      (1,18,2)              2.62909373E-02  0.0000000       0.0000000           CHD-1      
     5      (1,1,3)               0.29227619      0.0000000       0.0000000           CHD-1      
     6      (1,18,3)              2.92259803E-02  0.0000000       0.0000000           CHD-1      
     7      (1,1,4)               0.29227615      0.0000000       0.0000000           CHD-1      
     8      (1,18,4)              3.21502003E-02  0.0000000       0.0000000           CHD-1      
     9      (1,1,5)               0.29227598      0.0000000       0.0000000           CHD-1      
     10     (1,18,5)              3.50731341E-02  0.0000000       0.0000000           CHD-1      
     11     (1,1,6)               0.29227525      0.0000000       0.0000000           CHD-1      
     12     (1,18,6)              3.79959205E-02  0.0000000       0.0000000           CHD-1      
     13     (1,1,7)               0.29227340      0.0000000       0.0000000           CHD-1      
     14     (1,18,7)              4.09186900E-02  0.0000000       0.0000000           CHD-1      
     15     (1,1,8)               0.29227527      0.0000000       0.0000000           CHD-1      
     16     (1,18,8)              4.38414487E-02  0.0000000       0.0000000           CHD-1      
     17     (1,1,9)               0.29227604      0.0000000       0.0000000           CHD-1      
     18     (1,18,9)              4.67642094E-02  0.0000000       0.0000000           CHD-1      
     19     (1,1,10)              0.29227623      0.0000000       0.0000000           CHD-1      
     20     (1,18,10)             4.96869896E-02  0.0000000       0.0000000           CHD-1      
     21     (1,1,11)              0.29227627      0.0000000       0.0000000           CHD-1      
     22     (1,18,11)             5.26099208E-02  0.0000000       0.0000000           CHD-1      
     23     (1,1,12)              0.29227627      0.0000000       0.0000000           CHD-1      
     24     (1,18,12)             5.55341400E-02  0.0000000       0.0000000           CHD-1      
     25     (1,1,13)              0.29227628      0.0000000       0.0000000           CHD-1      
     26     (1,18,13)             5.84691828E-02  0.0000000       0.0000000           CHD-1      
     27     (1,1,14)              0.29227628      0.0000000       0.0000000           CHD-1      
     28     (1,18,14)             6.51768211E-02  0.0000000       0.0000000           CHD-1      
 ------------------------------------------------------------------------------------------------



1
  CONCENTRATION IN LAYER   1 AT END OF TIME STEP   1 IN STRESS PERIOD    2
  ---------------------------------------------------------------------------

                1               2               3               4               5               6               7               8               9              10
               11              12              13              14
 ................................................................................................................................................................
   1     2.728352E-23    6.714828E-21    1.614772E-18    3.706174E-16    7.791851E-14    1.349835E-11    1.292960E-09    1.356751E-11    5.827882E-14    1.612711E-16
         4.325161E-19    1.299297E-21    4.163701E-24    1.377563E-26
   2     7.108582E-23    2.800598E-20    1.102567E-17    4.302115E-15    1.633525E-12    5.519270E-10    8.571192E-08    5.567917E-10    1.265811E-12    2.003696E-15
         3.880860E-18    8.615114E-21    1.984402E-23    4.656022E-26
   3     3.571208E-24    6.152594E-21    1.180981E-17    2.281526E-14    4.250001E-11    6.944484E-08    1.882723E-05    7.055960E-08    3.699554E-11    1.733732E-14
         8.542367E-18    4.403289E-21    2.657704E-24    2.471642E-27
   4     2.230822E-26    2.234034E-22    2.631041E-18    3.121545E-14    3.589858E-10    3.595007E-06    1.918445E-02    3.600774E-06    3.640269E-10    3.183004E-14
         2.712520E-18    2.443631E-22    3.163693E-26    1.322532E-29
   5     6.318826E-31    8.949208E-27    1.802408E-22   -3.755683E-18   -5.031731E-13   -3.587372E-09    1.749610E-05   -4.877161E-09   -1.656709E-12   -1.015964E-16
        -5.288694E-22    1.433293E-25    2.240672E-29    8.938978E-33
   6    -1.288746E-33   -3.406005E-32    2.263488E-29    3.144091E-24    1.058357E-20   -3.305964E-15    4.959238E-12   -6.693480E-15    1.796490E-16    7.732007E-21
         4.197250E-25    1.467171E-29    2.110553E-33    8.424949E-37
   7    -1.693325E-38    6.969705E-41    1.118173E-39    1.416839E-34    5.910683E-31   -2.090470E-25    2.540219E-22    1.501474E-23    2.432920E-21   -4.664053E-26
         3.963829E-30    1.855765E-34    2.742625E-38    1.091325E-41
   8    -2.982250E-44    5.350173E-51    2.893989E-48    1.083478E-44   -1.138113E-38   -2.336131E-36    4.424235E-33   -5.866734E-32    5.183013E-27    4.857644E-30
        -1.387461E-34    3.876660E-39    8.202875E-44    1.986495E-47
   9    -7.023385E-51    3.881180E-53    2.669806E-53   -3.364655E-46   -4.133969E-43   -1.992469E-42    1.225993E-38   -6.774809E-34    1.014417E-32    1.806045E-34
         2.554624E-38   -2.312460E-43    2.932539E-48    1.540967E-53
  10    -1.684738E-58    4.414264E-60   -4.109085E-54   -4.546555E-50   -3.954104E-48    3.181295E-44    1.621089E-39   -3.202057E-38    5.758211E-38    1.321724E-39
         2.471083E-42    3.228032E-47   -1.618028E-53    2.602947E-58
  11    -4.651978E-67   -3.799495E-63   -2.746303E-58    3.613024E-56    9.871457E-50    3.913161E-45    1.410891E-42   -3.958450E-42    7.693860E-43    4.922024E-45
         9.541247E-48    3.868410E-51    7.306254E-56   -1.610936E-62
  12    -2.141423E-71   -3.386224E-66   -4.658488E-63    3.304040E-57    3.189166E-51    6.988947E-50    9.722074E-48   -6.451911E-47   -1.434117E-48    8.026828E-50
         1.336556E-52    1.967565E-55    1.746077E-59    1.114084E-64
  13     6.886344E-75    9.547948E-72    1.207814E-64    5.054172E-58    3.938460E-56    1.049101E-53    2.803576E-52   -4.198900E-52   -3.763604E-53   -2.397071E-55
         5.011895E-57    2.189222E-60    1.405122E-63    9.921293E-68
  14    -5.345862E-77   -3.101396E-71   -1.469142E-65    1.701056E-63    1.958996E-60    1.660583E-58    3.493614E-57   -2.445167E-57   -2.366558E-58   -4.790453E-60
        -1.160470E-64    2.449860E-64    9.779728E-68    5.729006E-71
  15     5.115995E-77    4.148292E-72   -6.745693E-70   -5.579085E-67   -1.932181E-65    1.651299E-63    6.291862E-62   -4.045530E-62   -5.033682E-63   -1.681277E-64
        -1.570514E-66    4.984452E-69    7.623610E-71    3.188992E-74
  16    -8.300835E-78    1.647393E-75    1.080846E-72   -4.278763E-72   -5.024672E-69    2.339160E-68    6.334778E-66   -4.147537E-66   -6.579429E-67   -3.121395E-68
        -5.671783E-70   -2.755940E-72    2.075106E-74    1.695061E-76
  17    -2.841089E-80   -1.204488E-77    5.164454E-76    5.917277E-74   -2.771779E-72   -6.480647E-71    3.656930E-69   -2.436081E-69   -4.829783E-70   -3.039240E-71
        -8.366605E-73   -9.885227E-75   -2.252191E-77    4.226863E-79
  18     1.243139E-81   -7.422158E-80   -4.950265E-78    3.836582E-76    1.372238E-75   -4.935898E-73    7.624602E-72   -4.806734E-72   -1.383643E-72   -1.286932E-73
        -5.610343E-75   -1.230530E-76   -1.231609E-78   -2.325181E-81

 CONCENTRATION WILL BE SAVED ON UNIT 1027 AT END OF TIME STEP    1, STRESS PERIOD    2


  MASS BUDGET FOR ENTIRE MODEL AT END OF TIME STEP    1, STRESS PERIOD   2
  ---------------------------------------------------------------------------------------------------

     CUMULATIVE MASS      M       RATES FOR THIS TIME STEP      M/T          PACKAGE NAME    
     ------------------                 ------------------------                     ----------------

           IN:                                      IN:
           ---                                      ---
     STORAGE-AQUEOUS =       9.4650E-03       STORAGE-AQUEOUS =       9.4637E-05     MST                              
                 WEL =           5.7870                   WEL =           0.0000     SSM_WEL-1                        
                 CHD =           0.0000                   CHD =           0.0000     SSM_CHD-1                        

            TOTAL IN =           5.7965              TOTAL IN =       9.4637E-05

          OUT:                                     OUT:
          ----                                     ----
     STORAGE-AQUEOUS =           5.7965       STORAGE-AQUEOUS =       9.4637E-05     MST                              
                 WEL =       2.6676E-42                   WEL =       2.6666E-44     SSM_WEL-1                        
                 CHD =           0.0000                   CHD =           0.0000     SSM_CHD-1                        

           TOTAL OUT =           5.7965             TOTAL OUT =       9.4637E-05

            IN - OUT =       1.3149E-09              IN - OUT =      -5.2173E-12

 PERCENT DISCREPANCY =           0.00     PERCENT DISCREPANCY =          -0.00




         TIME SUMMARY AT END OF TIME STEP    1 IN STRESS PERIOD    2
                    SECONDS     MINUTES      HOURS       DAYS        YEARS
                    -----------------------------------------------------------
   TIME STEP LENGTH  100.00      1.6667     2.77778E-02 1.15741E-03 3.16881E-06
 STRESS PERIOD TIME  100.00      1.6667     2.77778E-02 1.15741E-03 3.16881E-06
         TOTAL TIME  200.00      3.3333     5.55556E-02 2.31481E-03 6.33762E-06


end timestep


start timestep kper="3" kstp="1" mode="normal"


 OUTPUT CONTROL FOR STRESS PERIOD 3 IS REPEATED USING SETTINGS FROM A PREVIOUS STRESS PERIOD.
 UBDSV1 SAVING     FLOW-JA-FACE ON UNIT   1026 AT TIME STEP      1, STRESS PERIOD      3
 UBDSV1 SAVING  STORAGE-AQUEOUS ON UNIT   1026 AT TIME STEP      1, STRESS PERIOD      3
 UBDSV06 SAVING  SOURCE-SINK MIX IN MODEL GWT-P09-MF6      PACKAGE GWT-P09-MF6     CONNECTED TO MODEL GWT-P09-MF6      PACKAGE SSM              ON UNIT   1026 AT TIME STEP      1, STRESS PERIOD      3

 SSM PACKAGE (SSM) FLOW RATES   PERIOD      3   STEP        1
 ------------------------------------------------------------------------------------------------
   NUMBER   CELLID                   BOUND Q        SSM CONC          RATE         PACKAGE NAME  
 ------------------------------------------------------------------------------------------------
     1      (1,4,7)               1.00000000E-03  0.0000000       0.0000000           WEL-1      
     2      (1,11,7)             -1.89000000E-02 -2.42448601E-40  0.0000000           WEL-1      
     1      (1,1,1)               0.26517405      0.0000000       0.0000000           CHD-1      
     2      (1,18,1)              1.73345688E-02  0.0000000       0.0000000           CHD-1      
     3      (1,1,2)               0.26517390      0.0000000       0.0000000           CHD-1      
     4      (1,18,2)              2.38373344E-02  0.0000000       0.0000000           CHD-1      
     5      (1,1,3)               0.26517382      0.0000000       0.0000000           CHD-1      
     6      (1,18,3)              2.65135050E-02  0.0000000       0.0000000           CHD-1      
     7      (1,1,4)               0.26517371      0.0000000       0.0000000           CHD-1      
     8      (1,18,4)              2.91686414E-02  0.0000000       0.0000000           CHD-1      
     9      (1,1,5)               0.26517328      0.0000000       0.0000000           CHD-1      
     10     (1,18,5)              3.18208430E-02  0.0000000       0.0000000           CHD-1      
     11     (1,1,6)               0.26517171      0.0000000       0.0000000           CHD-1      
     12     (1,18,6)              3.44726584E-02  0.0000000       0.0000000           CHD-1      
     13     (1,1,7)               0.26516838      0.0000000       0.0000000           CHD-1      
     14     (1,18,7)              3.71244218E-02  0.0000000       0.0000000           CHD-1      
     15     (1,1,8)               0.26517179      0.0000000       0.0000000           CHD-1      
     16     (1,18,8)              3.97761511E-02  0.0000000       0.0000000           CHD-1      
     17     (1,1,9)               0.26517353      0.0000000       0.0000000           CHD-1      
     18     (1,18,9)              4.24278852E-02  0.0000000       0.0000000           CHD-1      
     19     (1,1,10)              0.26517402      0.0000000       0.0000000           CHD-1      
     20     (1,18,10)             4.50796781E-02  0.0000000       0.0000000           CHD-1      
     21     (1,1,11)              0.26517413      0.0000000       0.0000000           CHD-1      
     22     (1,18,11)             4.77318697E-02  0.0000000       0.0000000           CHD-1      
     23     (1,1,12)              0.26517416      0.0000000       0.0000000           CHD-1      
     24     (1,18,12)             5.03870027E-02  0.0000000       0.0000000           CHD-1      
     25     (1,1,13)              0.26517416      0.0000000       0.0000000           CHD-1      
     26     (1,18,13)             5.30631724E-02  0.0000000       0.0000000           CHD-1      
     27     (1,1,14)              0.26517416      0.0000000       0.0000000           CHD-1      
     28     (1,18,14)             5.95659377E-02  0.0000000       0.0000000           CHD-1      
 ------------------------------------------------------------------------------------------------



1
  CONCENTRATION IN LAYER   1 AT END OF TIME STEP   1 IN STRESS PERIOD    3
  ---------------------------------------------------------------------------

                1               2               3               4               5               6               7               8               9              10
               11              12              13              14
 ................................................................................................................................................................
   1     1.256224E-22    3.009247E-20    6.996877E-18    1.538956E-15    3.064635E-13    4.968078E-11    4.601541E-09    5.005777E-11    2.559519E-13    9.530455E-16
         3.264461E-18    1.113521E-20    3.824199E-23    1.323240E-25
   2     3.754076E-22    1.382649E-19    5.056512E-17    1.811977E-14    6.183815E-12    1.813637E-09    2.728515E-07    1.838609E-09    5.385219E-12    1.238488E-14
         2.892335E-17    7.053427E-20    1.750760E-22    4.392596E-25
   3     5.202814E-23    6.541546E-20    8.760604E-17    1.152394E-13    1.413618E-10    1.435826E-07    4.007379E-05    1.476263E-07    1.402430E-10    1.056565E-13
         7.753310E-17    5.701331E-20    4.534241E-23    4.599139E-26
   4     9.754675E-25    5.639362E-21    3.687134E-17    2.398443E-13    1.459561E-09    7.307136E-06    1.903355E-02    7.330746E-06    1.495503E-09    2.478293E-13
         3.847979E-17    6.108476E-21    1.221351E-24    5.146506E-28
   5    -1.553817E-28    1.508058E-24    1.829633E-20    1.009438E-16   -8.219444E-13    1.910903E-09    4.313870E-05   -2.892630E-09   -7.619542E-12   -1.077413E-15
        -1.166086E-21    7.860088E-24    1.864584E-27    7.509922E-31
   6    -7.240742E-31   -8.489259E-30    2.483359E-27    9.193547E-23   -6.115484E-19   -1.234647E-14    3.365558E-11   -4.495604E-14   -1.018677E-15    1.846391E-20
         1.670214E-23    1.902426E-27    4.355201E-31    1.754541E-34
   7    -2.718439E-35    2.661014E-38    3.561048E-37    1.286661E-32   -8.479737E-29   -3.350619E-24    5.335072E-21    4.019253E-22   -3.581492E-20    3.880094E-24
         6.056714E-28    6.878644E-32    1.613147E-35    6.487101E-39
   8    -1.557529E-40    2.463636E-47    1.012269E-45   -3.889442E-42   -5.133005E-37   -1.187977E-34    2.539679E-31    2.172087E-30   -2.346411E-25   -1.883977E-28
         3.897449E-32    2.160023E-36    1.365392E-40    3.865348E-44
   9    -1.340895E-46    7.694403E-49   -4.658794E-50   -3.708973E-44   -4.522533E-41   -3.792163E-40    4.410656E-37    6.647326E-32   -1.212994E-30   -2.045086E-32
        -2.925431E-36    2.379693E-40    5.557909E-45    9.810199E-50
  10    -1.278828E-53    3.066279E-55   -1.150882E-51   -1.103464E-47   -1.219434E-45   -5.556495E-42   -2.278121E-37    6.044461E-36   -1.470752E-35   -3.557197E-37
        -7.106769E-40   -1.056981E-44    5.690636E-50    1.451522E-54
  11    -1.140123E-61   -3.178970E-60   -1.726622E-55   -3.414311E-52   -3.064743E-47   -7.978595E-43   -2.424486E-40    1.128422E-39   -3.540574E-40   -2.751679E-42
        -7.074668E-45   -3.880451E-48   -7.984551E-53    1.890469E-58
  12    -6.075984E-68   -6.284550E-63   -9.312628E-60   -2.430372E-54   -1.191685E-48   -2.265630E-47   -4.060879E-45    2.669875E-44    1.727718E-46   -8.659725E-47
        -2.289217E-49   -4.093637E-52   -5.295745E-56   -4.070273E-61
  13     3.096423E-71   -2.605340E-67   -2.436782E-61   -4.538343E-55   -2.791255E-53   -8.238679E-51   -1.904275E-49    3.325619E-49    3.201024E-50   -4.116538E-53
        -1.420559E-53   -1.101778E-56   -8.736565E-60   -8.884527E-64
  14     5.922304E-73    1.501819E-67    3.199264E-62   -3.366131E-60   -3.257644E-57   -2.330537E-55   -4.505472E-54    4.097791E-54    4.519817E-55    8.642561E-57
        -1.044969E-58   -1.833922E-60   -1.261052E-63   -9.008221E-67
  15    -4.392009E-73   -1.936015E-68    2.937442E-66    1.996139E-63    4.775304E-62   -4.801840E-60   -1.644078E-58    1.398011E-58    1.953787E-59    6.626296E-61
         2.026354E-63   -1.501183E-64   -1.249139E-66   -8.840813E-70
  16     6.815996E-74   -1.281126E-71   -6.878912E-69    8.364576E-68    2.435783E-65   -1.273104E-64   -2.749396E-62    2.378459E-62    4.196953E-63    2.082123E-64
         3.027388E-66   -2.511734E-68   -8.389558E-70   -5.021461E-72
  17     3.006477E-76    1.059432E-73   -5.122708E-72   -3.716269E-70    1.732246E-68    3.894113E-67   -2.003094E-65    1.758815E-65    3.865683E-66    2.595579E-67
         6.731930E-69    3.411304E-71   -1.280452E-72   -2.226484E-74
  18    -1.154818E-77    7.041192E-76    3.044751E-74   -2.439295E-72   -1.072113E-71    2.816843E-69   -4.017074E-68    3.332608E-68    1.046666E-68    1.051943E-69
         4.691329E-71    8.864471E-73    9.210266E-76   -2.253855E-76

 CONCENTRATION WILL BE SAVED ON UNIT 1027 AT END OF TIME STEP    1, STRESS PERIOD    3


  MASS BUDGET FOR ENTIRE MODEL AT END OF TIME STEP    1, STRESS PERIOD   3
  ---------------------------------------------------------------------------------------------------

     CUMULATIVE MASS      M       RATES FOR THIS TIME STEP      M/T          PACKAGE NAME    
     ------------------                 ------------------------                     ----------------

           IN:                                      IN:
           ---                                      ---
     STORAGE-AQUEOUS =       2.6009E-02       STORAGE-AQUEOUS =       1.6544E-04     MST                              
                 WEL =           5.7870                   WEL =           0.0000     SSM_WEL-1                        
                 CHD =           0.0000                   CHD =           0.0000     SSM_CHD-1                        

            TOTAL IN =           5.8130              TOTAL IN =       1.6544E-04

          OUT:                                     OUT:
          ----                                     ----
     STORAGE-AQUEOUS =           5.8130       STORAGE-AQUEOUS =       1.6544E-04     MST                              
                 WEL =       2.6676E-42                   WEL =           0.0000     SSM_WEL-1                        
                 CHD =           0.0000                   CHD =           0.0000     SSM_CHD-1                        

           TOTAL OUT =           5.8130             TOTAL OUT =       1.6544E-04

            IN - OUT =       3.3540E-10              IN - OUT =      -9.7953E-12

 PERCENT DISCREPANCY =           0.00     PERCENT DISCREPANCY =          -0.00




         TIME SUMMARY AT END OF TIME STEP    1 IN STRESS PERIOD    3
                    SECONDS     MINUTES      HOURS       DAYS        YEARS
                    -----------------------------------------------------------
   TIME STEP LENGTH  100.00      1.6667     2.77778E-02 1.15741E-03 3.16881E-06
 STRESS PERIOD TIME  100.00      1.6667     2.77778E-02 1.15741E-03 3.16881E-06
         TOTAL TIME  300.00      5.0000     8.33333E-02 3.47222E-03 9.50643E-06


end timestep


start timestep kper="4" kstp="1" mode="normal"


 OUTPUT CONTROL FOR STRESS PERIOD 4 IS REPEATED USING SETTINGS FROM A PREVIOUS STRESS PERIOD.
 UBDSV1 SAVING     FLOW-JA-FACE ON UNIT   1026 AT TIME STEP      1, STRESS PERIOD      4
 UBDSV1 SAVING  STORAGE-AQUEOUS ON UNIT   1026 AT TIME STEP      1, STRESS PERIOD      4
 UBDSV06 SAVING  SOURCE-SINK MIX IN MODEL GWT-P09-MF6      PACKAGE GWT-P09-MF6     CONNECTED TO MODEL GWT-P09-MF6      PACKAGE SSM              ON UNIT   1026 AT TIME STEP      1, STRESS PERIOD      4

 SSM PACKAGE (SSM) FLOW RATES   PERIOD      4   STEP        1
 ------------------------------------------------------------------------------------------------
   NUMBER   CELLID                   BOUND Q        SSM CONC          RATE         PACKAGE NAME  
 ------------------------------------------------------------------------------------------------
     1      (1,4,7)               1.00000000E-03  0.0000000       0.0000000           WEL-1      
     2      (1,11,7)             -1.89000000E-02 -6.40205726E-38  0.0000000           WEL-1      
     1      (1,1,1)               0.24309792      0.0000000       0.0000000           CHD-1      
     2      (1,18,1)              1.54834845E-02  0.0000000       0.0000000           CHD-1      
     3      (1,1,2)               0.24309752      0.0000000       0.0000000           CHD-1      
     4      (1,18,2)              2.18321940E-02  0.0000000       0.0000000           CHD-1      
     5      (1,1,3)               0.24309729      0.0000000       0.0000000           CHD-1      
     6      (1,18,3)              2.43025262E-02  0.0000000       0.0000000           CHD-1      
     7      (1,1,4)               0.24309703      0.0000000       0.0000000           CHD-1      
     8      (1,18,4)              2.67397318E-02  0.0000000       0.0000000           CHD-1      
     9      (1,1,5)               0.24309619      0.0000000       0.0000000           CHD-1      
     10     (1,18,5)              2.91716688E-02  0.0000000       0.0000000           CHD-1      
     11     (1,1,6)               0.24309353      0.0000000       0.0000000           CHD-1      
     12     (1,18,6)              3.16028256E-02  0.0000000       0.0000000           CHD-1      
     13     (1,1,7)               0.24308868      0.0000000       0.0000000           CHD-1      
     14     (1,18,7)              3.40338610E-02  0.0000000       0.0000000           CHD-1      
     15     (1,1,8)               0.24309380      0.0000000       0.0000000           CHD-1      
     16     (1,18,8)              3.64648157E-02  0.0000000       0.0000000           CHD-1      
     17     (1,1,9)               0.24309693      0.0000000       0.0000000           CHD-1      
     18     (1,18,9)              3.88957788E-02  0.0000000       0.0000000           CHD-1      
     19     (1,1,10)              0.24309796      0.0000000       0.0000000           CHD-1      
     20     (1,18,10)             4.13268757E-02  0.0000000       0.0000000           CHD-1      
     21     (1,1,11)              0.24309821      0.0000000       0.0000000           CHD-1      
     22     (1,18,11)             4.37587839E-02  0.0000000       0.0000000           CHD-1      
     23     (1,1,12)              0.24309827      0.0000000       0.0000000           CHD-1      
     24     (1,18,12)             4.61959791E-02  0.0000000       0.0000000           CHD-1      
     25     (1,1,13)              0.24309828      0.0000000       0.0000000           CHD-1      
     26     (1,18,13)             4.86663083E-02  0.0000000       0.0000000           CHD-1      
     27     (1,1,14)              0.24309828      0.0000000       0.0000000           CHD-1      
     28     (1,18,14)             5.50150170E-02  0.0000000       0.0000000           CHD-1      
 ------------------------------------------------------------------------------------------------



1
  CONCENTRATION IN LAYER   1 AT END OF TIME STEP   1 IN STRESS PERIOD    4
  ---------------------------------------------------------------------------

                1               2               3               4               5               6               7               8               9              10
               11              12              13              14
 ................................................................................................................................................................
   1     4.210066E-22    9.805141E-20    2.202247E-17    4.639382E-15    8.752918E-13    1.329153E-10    1.170775E-08    1.343054E-10    7.823580E-13    3.423544E-15
         1.337011E-17    4.993083E-20    1.825497E-22    6.611838E-25
   2     1.404997E-21    4.870365E-19    1.664687E-16    5.511927E-14    1.705540E-11    4.423967E-09    6.250797E-07    4.510725E-09    1.586561E-11    4.426704E-14
         1.177460E-16    3.134110E-19    8.350335E-22    2.229992E-24
   3     3.758407E-22    3.779158E-19    3.906770E-16    3.886984E-13    3.524925E-10    2.565320E-07    6.841507E-05    2.674736E-07    3.656650E-10    3.813044E-13
         3.720537E-16    3.541704E-19    3.485952E-22    3.960131E-25
   4     1.554858E-23    6.038023E-20    2.576621E-16    1.075480E-12    4.075266E-09    1.220543E-05    1.882632E-02    1.227618E-05    4.234941E-09    1.130952E-12
         2.733011E-16    6.534336E-20    1.800856E-23    8.128463E-27
   5    -8.847178E-27    4.634872E-23    3.472831E-19    1.602968E-15    3.796079E-12    2.679335E-08    8.398029E-05    1.382310E-08   -2.256837E-11   -6.238957E-15
         7.386775E-20    1.482727E-22    4.833665E-26    2.101580E-29
   6    -5.583506E-29   -4.063859E-28    7.587906E-26    1.874877E-21    3.877775E-19   -9.694448E-15    1.437063E-10   -1.952199E-13   -1.799880E-14   -9.001159E-19
         2.880224E-22    6.916891E-26    2.211799E-29    9.620426E-33
   7    -4.606614E-33    2.129876E-36    2.570802E-35    6.232428E-31    4.164843E-29   -2.360673E-23    5.531559E-20    5.039854E-21   -1.514383E-18    9.676987E-23
         2.672017E-26    5.512084E-30    1.797594E-33    7.810144E-37
   8    -6.477555E-38    1.060424E-44    1.397155E-43    3.348888E-41   -7.953359E-36   -2.208382E-33    5.665369E-30    1.612005E-28   -2.449142E-23   -1.911672E-26
         2.392790E-30    2.669065E-34    3.449719E-38    1.144614E-41
   9    -1.516400E-43    8.995478E-46    3.531023E-49   -1.100496E-42   -1.446833E-39   -2.176865E-38    3.561185E-34    1.229818E-29   -2.663548E-28   -4.245674E-30
        -6.994905E-34    3.933463E-38    1.758605E-42    7.075754E-47
  10    -4.247152E-50    9.410123E-52   -6.711893E-50   -6.207642E-46   -1.066656E-43   -1.466857E-39   -5.301127E-35    1.783243E-33   -5.528100E-33   -1.394418E-34
        -2.899105E-37   -5.591876E-42    2.566640E-47    9.309757E-52
  11    -9.609535E-58    8.630866E-59   -1.995369E-53   -1.286511E-49   -1.189266E-44   -2.357499E-40   -6.402057E-38    4.328498E-37   -1.961586E-37   -1.803526E-39
        -6.075310E-42   -4.238559E-45   -1.022288E-49    2.063484E-55
  12    -1.544252E-64   -1.607918E-60   -3.392374E-57   -1.831113E-51   -5.327140E-46   -9.729332E-45   -1.992028E-42    1.300998E-41   -2.936162E-43   -9.045645E-44
        -3.488436E-46   -7.509028E-49   -1.327836E-52   -1.311665E-57
  13     1.390668E-68   -5.789121E-64   -4.026010E-58   -3.812028E-52   -2.060219E-50   -6.226263E-48   -1.300986E-46    2.545705E-46    2.437855E-47   -5.271201E-49
        -3.017026E-50   -3.755970E-53   -3.650306E-56   -5.032566E-60
  14     2.987468E-69    4.334993E-64    5.123213E-59   -5.057069E-57   -4.113028E-54   -2.640292E-52   -4.809145E-51    5.364641E-51    6.324832E-52    6.583962E-54
        -5.675187E-55   -8.056500E-57   -8.600596E-60   -7.433324E-63
  15    -1.848008E-69   -5.327792E-65    7.724676E-63    4.346566E-60    8.183817E-59   -8.963417E-57   -2.877646E-55    3.033089E-55    4.522675E-56    1.243530E-57
        -2.907028E-59   -1.251254E-60   -9.668275E-63   -1.038077E-65
  16     2.753801E-70   -4.978162E-68   -2.222009E-65    3.341777E-64    6.536942E-62   -3.146417E-61   -6.734698E-59    7.193938E-59    1.352201E-59    6.096346E-61
        -1.136748E-63   -5.515081E-64   -9.902385E-66   -5.844721E-68
  17     1.408977E-72    4.208790E-70   -2.066460E-68   -1.198775E-66    5.293104E-65    1.222580E-63   -5.611729E-62    6.052321E-62    1.419397E-62    9.190351E-64
         1.333680E-65   -6.252642E-67   -2.371300E-68   -3.199054E-70
  18    -4.768664E-74    2.823714E-72    9.850692E-71   -7.630644E-69   -4.570562E-68    8.207796E-66   -1.085422E-64    1.096510E-64    3.659298E-65    3.720409E-66
         1.414906E-67    1.074391E-70   -1.335460E-70   -4.058705E-72

 CONCENTRATION WILL BE SAVED ON UNIT 1027 AT END OF TIME STEP    1, STRESS PERIOD    4


  MASS BUDGET FOR ENTIRE MODEL AT END OF TIME STEP    1, STRESS PERIOD   4
  ---------------------------------------------------------------------------------------------------

     CUMULATIVE MASS      M       RATES FOR THIS TIME STEP      M/T          PACKAGE NAME    
     ------------------                 ------------------------                     ----------------

           IN:                                      IN:
           ---                                      ---
     STORAGE-AQUEOUS =       5.0243E-02       STORAGE-AQUEOUS =       2.4234E-04     MST                              
                 WEL =           5.7870                   WEL =           0.0000     SSM_WEL-1                        
                 CHD =           0.0000                   CHD =           0.0000     SSM_CHD-1                        

            TOTAL IN =           5.8372              TOTAL IN =       2.4234E-04

          OUT:                                     OUT:
          ----                                     ----
     STORAGE-AQUEOUS =           5.8372       STORAGE-AQUEOUS =       2.4234E-04     MST                              
                 WEL =       2.6676E-42                   WEL =           0.0000     SSM_WEL-1                        
                 CHD =           0.0000                   CHD =           0.0000     SSM_CHD-1                        

           TOTAL OUT =           5.8372             TOTAL OUT =       2.4234E-04

            IN - OUT =      -1.0185E-09              IN - OUT =      -1.3539E-11

 PERCENT DISCREPANCY =          -0.00     PERCENT DISCREPANCY =          -0.00




         TIME SUMMARY AT END OF TIME STEP    1 IN STRESS PERIOD    4
                    SECONDS     MINUTES      HOURS       DAYS        YEARS
                    -----------------------------------------------------------
   TIME STEP LENGTH  100.00      1.6667     2.77778E-02 1.15741E-03 3.16881E-06
 STRESS PERIOD TIME  100.00      1.6667     2.77778E-02 1.15741E-03 3.16881E-06
         TOTAL TIME  400.00      6.6667     0.11111     4.62963E-03 1.26752E-05


end timestep


start timestep kper="5" kstp="1" mode="normal"


 OUTPUT CONTROL FOR STRESS PERIOD 5 IS REPEATED USING SETTINGS FROM A PREVIOUS STRESS PERIOD.
 UBDSV1 SAVING     FLOW-JA-FACE ON UNIT   1026 AT TIME STEP      1, STRESS PERIOD      5
 UBDSV1 SAVING  STORAGE-AQUEOUS ON UNIT   1026 AT TIME STEP      1, STRESS PERIOD      5
 UBDSV06 SAVING  SOURCE-SINK MIX IN MODEL GWT-P09-MF6      PACKAGE GWT-P09-MF6     CONNECTED TO MODEL GWT-P09-MF6      PACKAGE SSM              ON UNIT   1026 AT TIME STEP      1, STRESS PERIOD      5

 SSM PACKAGE (SSM) FLOW RATES   PERIOD      5   STEP        1
 ------------------------------------------------------------------------------------------------
   NUMBER   CELLID                   BOUND Q        SSM CONC          RATE         PACKAGE NAME  
 ------------------------------------------------------------------------------------------------
     1      (1,4,7)               1.00000000E-03  0.0000000       0.0000000           WEL-1      
     2      (1,11,7)             -1.89000000E-02 -3.26191995E-36  0.0000000           WEL-1      
     1      (1,1,1)               0.22488254      0.0000000       0.0000000           CHD-1      
     2      (1,18,1)              1.39409523E-02  0.0000000       0.0000000           CHD-1      
     3      (1,1,2)               0.22488162      0.0000000       0.0000000           CHD-1      
     4      (1,18,2)              2.01716118E-02  0.0000000       0.0000000           CHD-1      
     5      (1,1,3)               0.22488106      0.0000000       0.0000000           CHD-1      
     6      (1,18,3)              2.24765397E-02  0.0000000       0.0000000           CHD-1      
     7      (1,1,4)               0.22488054      0.0000000       0.0000000           CHD-1      
     8      (1,18,4)              2.47352602E-02  0.0000000       0.0000000           CHD-1      
     9      (1,1,5)               0.22487915      0.0000000       0.0000000           CHD-1      
     10     (1,18,5)              2.69857833E-02  0.0000000       0.0000000           CHD-1      
     11     (1,1,6)               0.22487523      0.0000000       0.0000000           CHD-1      
     12     (1,18,6)              2.92349621E-02  0.0000000       0.0000000           CHD-1      
     13     (1,1,7)               0.22486899      0.0000000       0.0000000           CHD-1      
     14     (1,18,7)              3.14839029E-02  0.0000000       0.0000000           CHD-1      
     15     (1,1,8)               0.22487591      0.0000000       0.0000000           CHD-1      
     16     (1,18,8)              3.37326841E-02  0.0000000       0.0000000           CHD-1      
     17     (1,1,9)               0.22488093      0.0000000       0.0000000           CHD-1      
     18     (1,18,9)              3.59814763E-02  0.0000000       0.0000000           CHD-1      
     19     (1,1,10)              0.22488279      0.0000000       0.0000000           CHD-1      
     20     (1,18,10)             3.82305238E-02  0.0000000       0.0000000           CHD-1      
     21     (1,1,11)              0.22488331      0.0000000       0.0000000           CHD-1      
     22     (1,18,11)             4.04809794E-02  0.0000000       0.0000000           CHD-1      
     23     (1,1,12)              0.22488343      0.0000000       0.0000000           CHD-1      
     24     (1,18,12)             4.27396739E-02  0.0000000       0.0000000           CHD-1      
     25     (1,1,13)              0.22488345      0.0000000       0.0000000           CHD-1      
     26     (1,18,13)             4.50445936E-02  0.0000000       0.0000000           CHD-1      
     27     (1,1,14)              0.22488346      0.0000000       0.0000000           CHD-1      
     28     (1,18,14)             5.12752509E-02  0.0000000       0.0000000           CHD-1      
 ------------------------------------------------------------------------------------------------



1
  CONCENTRATION IN LAYER   1 AT END OF TIME STEP   1 IN STRESS PERIOD    5
  ---------------------------------------------------------------------------

                1               2               3               4               5               6               7               8               9              10
               11              12              13              14
 ................................................................................................................................................................
   1     1.151814E-21    2.608041E-19    5.660634E-17    1.143357E-14    2.047817E-12    2.921219E-10    2.429922E-08    2.961439E-10    1.912692E-12    9.347902E-15
         4.005519E-17    1.606491E-19    6.202653E-22    2.344833E-24
   2     4.211072E-21    1.381743E-18    4.439432E-16    1.367012E-13    3.870395E-11    9.011859E-09    1.179357E-06    9.249234E-09    3.756394E-11    1.200182E-13
         3.538202E-16    1.017312E-18    2.889111E-21    8.162014E-24
   3     1.809929E-21    1.524628E-18    1.287837E-15    1.031094E-12    7.404811E-10    4.190158E-07    1.025106E-04    4.436148E-07    7.912855E-10    1.054025E-12
         1.279849E-15    1.488883E-18    1.740857E-21    2.215176E-24
   4     1.374380E-22    3.892817E-19    1.186644E-15    3.484771E-12    9.071749E-09    1.813750E-05    1.856807E-02    1.831078E-05    9.600917E-09    3.747449E-12
         1.285394E-15    4.245361E-19    1.523395E-22    7.636749E-26
   5    -1.639493E-25    6.079738E-22    3.121870E-18    1.072581E-14    2.743746E-11    8.847788E-08    1.413600E-04    6.020229E-08   -4.852465E-11   -2.478407E-14
         9.240626E-19    1.503001E-21    6.384529E-25    3.110787E-28
   6    -1.547953E-27   -8.122175E-27    1.029822E-24    2.099565E-20    3.877757E-17    1.120614E-13    4.595358E-10   -6.450597E-13   -1.137814E-13   -1.162502E-17
         2.907353E-21    1.187187E-24    4.982282E-28    2.427250E-31
   7    -2.397963E-31    6.195258E-35    7.102622E-34    1.422277E-29    2.528494E-26   -7.872285E-23    3.688553E-19    3.921297E-20   -1.881574E-17    8.383472E-22
         5.575381E-25    1.781172E-28    7.587161E-32    3.690720E-35
   8    -6.955017E-36    1.184442E-42    7.543469E-42    7.264414E-39   -4.965744E-35   -2.059522E-32    7.011173E-29    3.189376E-27   -6.302420E-22   -4.602278E-25
         5.012461E-29    1.318331E-32    2.841433E-36    1.113615E-39
   9    -3.673817E-41    2.245833E-43    2.722750E-46   -1.168647E-41   -2.055290E-38   -5.592458E-37    2.356893E-32    4.940184E-28   -1.247302E-26   -1.873541E-28
        -3.380863E-32    1.848415E-36    1.870341E-40    1.390447E-44
  10    -2.489396E-47    5.159794E-49   -1.224864E-48   -1.360167E-44   -4.233413E-42   -7.571809E-38   -2.492835E-33    1.024160E-31   -3.888816E-31   -1.012757E-32
        -2.150570E-35   -5.118549E-40    2.994844E-45    1.432691E-49
  11    -1.245698E-54    6.257883E-55   -7.961770E-52   -1.121550E-47   -8.078015E-43   -1.313114E-38   -3.261920E-36    2.988167E-35   -1.817053E-35   -1.940942E-37
        -8.448097E-40   -7.144170E-43   -1.830513E-47    4.806866E-53
  12    -3.763380E-61   -1.174942E-58   -4.650512E-55   -2.143152E-49   -4.044734E-44   -7.638448E-43   -1.645631E-40    1.071484E-39   -6.888114E-41   -1.396217E-41
        -7.328708E-44   -1.888637E-46   -4.334347E-50   -4.972870E-55
  13     4.849086E-67   -2.071562E-61   -8.856783E-56   -4.691093E-50   -2.412471E-48   -7.080109E-46   -1.381124E-44    2.956325E-44    2.586127E-45   -1.722126E-46
        -8.120359E-48   -1.493226E-50   -1.767459E-53   -3.145513E-57
  14     1.500878E-66    1.406870E-61    1.043205E-56   -9.820680E-55   -6.795094E-52   -4.086108E-50   -7.174554E-49    9.433438E-49    1.115192E-49   -1.261512E-51
        -2.738654E-52   -3.869874E-54   -5.895700E-57   -6.121024E-60
  15    -7.844593E-67   -1.638557E-62    2.297591E-60    1.088991E-57    1.830305E-56   -1.995393E-54   -6.235798E-53    7.792168E-53    1.176635E-53    1.146852E-55
        -2.867606E-56   -9.025463E-58   -7.201774E-60   -1.076948E-62
  16     1.123727E-67   -1.969263E-65   -7.461034E-63    1.124909E-61    1.942043E-59   -7.014959E-59   -1.860018E-56    2.342336E-56    4.485278E-57    1.345871E-58
        -9.609288E-60   -5.728462E-61   -9.461223E-63   -5.898953E-65
  17     6.335248E-70    1.636201E-67   -7.736704E-66   -4.180189E-64    1.662355E-62    4.193232E-61   -1.690286E-59    2.134261E-59    5.134885E-60    2.684230E-61
        -6.975155E-63   -9.392379E-64   -2.669182E-65   -3.535625E-67
  18    -1.909017E-71    1.067531E-69    3.553247E-68   -2.477448E-66   -2.080676E-65    2.575726E-63   -3.168148E-62    3.702122E-62    1.274281E-62    1.192306E-63
         1.761164E-65   -3.023682E-66   -1.778303E-67   -4.602815E-69

 CONCENTRATION WILL BE SAVED ON UNIT 1027 AT END OF TIME STEP    1, STRESS PERIOD    5


  MASS BUDGET FOR ENTIRE MODEL AT END OF TIME STEP    1, STRESS PERIOD   5
  ---------------------------------------------------------------------------------------------------

     CUMULATIVE MASS      M       RATES FOR THIS TIME STEP      M/T          PACKAGE NAME    
     ------------------                 ------------------------                     ----------------

           IN:                                      IN:
           ---                                      ---
     STORAGE-AQUEOUS =       8.2198E-02       STORAGE-AQUEOUS =       3.1955E-04     MST                              
                 WEL =           5.7870                   WEL =           0.0000     SSM_WEL-1                        
                 CHD =           0.0000                   CHD =           0.0000     SSM_CHD-1                        

            TOTAL IN =           5.8692              TOTAL IN =       3.1955E-04

          OUT:                                     OUT:
          ----                                     ----
     STORAGE-AQUEOUS =           5.8692       STORAGE-AQUEOUS =       3.1955E-04     MST                              
                 WEL =       2.6676E-42                   WEL =           0.0000     SSM_WEL-1                        
                 CHD =           0.0000                   CHD =           0.0000     SSM_CHD-1                        

           TOTAL OUT =           5.8692             TOTAL OUT =       3.1955E-04

            IN - OUT =      -2.5925E-09              IN - OUT =      -1.5740E-11

 PERCENT DISCREPANCY =          -0.00     PERCENT DISCREPANCY =          -0.00




         TIME SUMMARY AT END OF TIME STEP    1 IN STRESS PERIOD    5
                    SECONDS     MINUTES      HOURS       DAYS        YEARS
                    -----------------------------------------------------------
   TIME STEP LENGTH  100.00      1.6667     2.77778E-02 1.15741E-03 3.16881E-06
 STRESS PERIOD TIME  100.00      1.6667     2.77778E-02 1.15741E-03 3.16881E-06
         TOTAL TIME  500.00      8.3333     0.13889     5.78704E-03 1.58440E-05


end timestep


start timestep kper="6" kstp="1" mode="normal"


 OUTPUT CONTROL FOR STRESS PERIOD 6 IS REPEATED USING SETTINGS FROM A PREVIOUS STRESS PERIOD.
 UBDSV1 SAVING     FLOW-JA-FACE ON UNIT   1026 AT TIME STEP      1, STRESS PERIOD      6
 UBDSV1 SAVING  STORAGE-AQUEOUS ON UNIT   1026 AT TIME STEP      1, STRESS PERIOD      6
 UBDSV06 SAVING  SOURCE-SINK MIX IN MODEL GWT-P09-MF6      PACKAGE GWT-P09-MF6     CONNECTED TO MODEL GWT-P09-MF6      PACKAGE SSM              ON UNIT   1026 AT TIME STEP      1, STRESS PERIOD      6

 SSM PACKAGE (SSM) FLOW RATES   PERIOD      6   STEP        1
 ------------------------------------------------------------------------------------------------
   NUMBER   CELLID                   BOUND Q        SSM CONC          RATE         PACKAGE NAME  
 ------------------------------------------------------------------------------------------------
     1      (1,4,7)               1.00000000E-03  0.0000000       0.0000000           WEL-1      
     2      (1,11,7)             -1.89000000E-02 -7.65180256E-35  0.0000000           WEL-1      
     1      (1,1,1)               0.20966500      0.0000000       0.0000000           CHD-1      
     2      (1,18,1)              1.26402346E-02  0.0000000       0.0000000           CHD-1      
     3      (1,1,2)               0.20966314      0.0000000       0.0000000           CHD-1      
     4      (1,18,2)              1.87787960E-02  0.0000000       0.0000000           CHD-1      
     5      (1,1,3)               0.20966198      0.0000000       0.0000000           CHD-1      
     6      (1,18,3)              2.09493567E-02  0.0000000       0.0000000           CHD-1      
     7      (1,1,4)               0.20966105      0.0000000       0.0000000           CHD-1      
     8      (1,18,4)              2.30603112E-02  0.0000000       0.0000000           CHD-1      
     9      (1,1,5)               0.20965897      0.0000000       0.0000000           CHD-1      
     10     (1,18,5)              2.51596654E-02  0.0000000       0.0000000           CHD-1      
     11     (1,1,6)               0.20965372      0.0000000       0.0000000           CHD-1      
     12     (1,18,6)              2.72569396E-02  0.0000000       0.0000000           CHD-1      
     13     (1,1,7)               0.20964632      0.0000000       0.0000000           CHD-1      
     14     (1,18,7)              2.93537994E-02  0.0000000       0.0000000           CHD-1      
     15     (1,1,8)               0.20965522      0.0000000       0.0000000           CHD-1      
     16     (1,18,8)              3.14503806E-02  0.0000000       0.0000000           CHD-1      
     17     (1,1,9)               0.20966273      0.0000000       0.0000000           CHD-1      
     18     (1,18,9)              3.35469716E-02  0.0000000       0.0000000           CHD-1      
     19     (1,1,10)              0.20966581      0.0000000       0.0000000           CHD-1      
     20     (1,18,10)             3.56439944E-02  0.0000000       0.0000000           CHD-1      
     21     (1,1,11)              0.20966674      0.0000000       0.0000000           CHD-1      
     22     (1,18,11)             3.77432113E-02  0.0000000       0.0000000           CHD-1      
     23     (1,1,12)              0.20966697      0.0000000       0.0000000           CHD-1      
     24     (1,18,12)             3.98541098E-02  0.0000000       0.0000000           CHD-1      
     25     (1,1,13)              0.20966702      0.0000000       0.0000000           CHD-1      
     26     (1,18,13)             4.20246518E-02  0.0000000       0.0000000           CHD-1      
     27     (1,1,14)              0.20966703      0.0000000       0.0000000           CHD-1      
     28     (1,18,14)             4.81632081E-02  0.0000000       0.0000000           CHD-1      
 ------------------------------------------------------------------------------------------------



1
  CONCENTRATION IN LAYER   1 AT END OF TIME STEP   1 IN STRESS PERIOD    6
  ---------------------------------------------------------------------------

                1               2               3               4               5               6               7               8               9              10
               11              12              13              14
 ................................................................................................................................................................
   1     2.732338E-21    6.017358E-19    1.263148E-16    2.449743E-14    4.174950E-12    5.611602E-10    4.397110E-08    5.710077E-10    4.020108E-12    2.140382E-14
         9.870089E-17    4.201483E-19    1.702024E-21    6.692686E-24
   2     1.078585E-20    3.365372E-18    1.021355E-15    2.941479E-13    7.680221E-11    1.623253E-08    1.957497E-06    1.678428E-08    7.686290E-11    2.736006E-13
         8.793409E-16    2.707109E-18    8.142558E-21    2.420065E-23
   3     6.659410E-21    4.840959E-18    3.466662E-15    2.326055E-12    1.383003E-09    6.398921E-07    1.408964E-04    6.884966E-07    1.518602E-09    2.459464E-12
         3.560372E-15    4.872478E-18    6.574526E-21    9.299808E-24
   4     8.231012E-22    1.789196E-18    4.127880E-15    9.068208E-12    1.733470E-08    2.491533E-05    1.826605E-02    2.528296E-05    1.876705E-08    1.002430E-11
         4.588225E-15    1.977748E-18    8.885687E-22    5.021952E-25
   5    -1.631419E-24    4.729740E-21    1.786286E-17    4.690997E-14    9.924123E-11    2.080634E-07    2.154089E-04    1.555639E-07   -7.592840E-11   -7.536524E-14
         6.111164E-18    1.008643E-20    5.375986E-24    2.978281E-27
   6    -2.262936E-26   -9.301108E-26    7.523516E-24    1.486645E-19    2.985362E-16    6.888662E-13    1.203130E-09   -1.760058E-12   -4.725642E-13   -7.895370E-17
         2.003346E-20    1.233967E-23    6.525149E-27    3.610354E-30
   7    -5.925477E-30    7.909988E-34    9.621683E-33    1.850055E-28    3.698609E-25    2.641605E-23    1.810027E-18    2.187185E-19   -1.375110E-16    2.490326E-21
         6.956631E-24    3.135432E-27    1.674368E-30    9.238093E-34
   8    -3.150067E-34    5.461616E-41    2.041792E-40    1.881889E-37    5.146110E-35   -1.025661E-31    5.761633E-28    3.442919E-26   -8.515485E-21   -5.834737E-24
         5.571591E-28    3.458113E-31    1.101591E-34    5.083409E-38
   9    -3.300183E-39    2.074133E-41    1.144196E-44    3.531586E-42   -1.473163E-37   -7.954303E-36    6.278205E-31    9.659163E-27   -2.798880E-25   -3.958158E-27
        -7.768046E-31    4.136834E-35    9.405549E-39    1.134926E-42
  10    -4.721726E-45    9.229692E-47   -1.703915E-48   -1.399278E-43   -9.392213E-41   -1.756635E-36   -5.493373E-32    2.679796E-30   -1.209535E-29   -3.220524E-31
        -6.917265E-34   -2.022682E-38    1.578120E-43    5.145095E-48
  11    -4.759285E-52    2.207660E-52   -1.435030E-50   -4.150872E-46   -2.372204E-41   -3.303224E-37   -7.651803E-35    9.004441E-34   -6.949995E-34   -8.522288E-36
        -4.703648E-38   -4.654713E-41   -1.209594E-45    4.181999E-51
  12    -2.651493E-58   -3.150690E-57   -3.246193E-53   -1.012803E-47   -1.306287E-42   -2.684241E-41   -5.738375E-39    3.738362E-38   -4.333190E-39   -8.231161E-40
        -5.560840E-42   -1.702833E-44   -4.875148E-48   -6.199282E-53
  13    -9.280398E-64   -2.514741E-59   -6.994067E-54   -2.227182E-48   -1.155470E-46   -3.170237E-44   -5.910958E-43    1.363664E-42    9.775495E-44   -1.608695E-44
        -7.546321E-46   -1.915853E-48   -2.735834E-51   -6.054315E-55
  14     2.254394E-64    1.485991E-59    7.478563E-55   -6.758444E-53   -4.040427E-50   -2.345857E-48   -4.049482E-47    6.099155E-47    6.767977E-48   -3.729529E-49
        -3.893432E-50   -5.812629E-52   -1.181839E-54   -1.458474E-57
  15    -1.015372E-64   -1.632682E-60    2.224597E-58    9.045320E-56    1.502228E-54   -1.507294E-52   -4.734947E-51    6.793956E-51    9.861138E-52   -2.538619E-53
        -6.029267E-54   -1.811690E-55   -1.542681E-57   -3.006640E-60
  16     1.395656E-65   -2.379069E-63   -7.801507E-61    1.051268E-59    1.876221E-57   -3.441549E-57   -1.701370E-54    2.443802E-54    4.564432E-55   -2.932410E-58
        -2.888785E-57   -1.428135E-58   -2.385758E-60   -1.602900E-62
  17     8.428283E-68    1.913805E-65   -8.416923E-64   -4.692980E-62    1.612705E-60    4.673127E-59   -1.644639E-57    2.349876E-57    5.587657E-58    1.435909E-59
        -3.400217E-60   -2.667167E-61   -7.285896E-63   -9.984648E-65
  18    -2.289394E-69    1.185943E-67    4.213823E-66   -2.514296E-64   -2.928316E-63    2.618548E-61   -3.006072E-60    3.921806E-60    1.353442E-60    9.928261E-62
        -5.356642E-63   -1.014109E-63   -4.953022E-65   -1.273063E-66

 CONCENTRATION WILL BE SAVED ON UNIT 1027 AT END OF TIME STEP    1, STRESS PERIOD    6


  MASS BUDGET FOR ENTIRE MODEL AT END OF TIME STEP    1, STRESS PERIOD   6
  ---------------------------------------------------------------------------------------------------

     CUMULATIVE MASS      M       RATES FOR THIS TIME STEP      M/T          PACKAGE NAME    
     ------------------                 ------------------------                     ----------------

           IN:                                      IN:
           ---                                      ---
     STORAGE-AQUEOUS =           0.1215       STORAGE-AQUEOUS =       3.9278E-04     MST                              
                 WEL =           5.7870                   WEL =           0.0000     SSM_WEL-1                        
                 CHD =           0.0000                   CHD =           0.0000     SSM_CHD-1                        

            TOTAL IN =           5.9085              TOTAL IN =       3.9278E-04

          OUT:                                     OUT:
          ----                                     ----
     STORAGE-AQUEOUS =           5.9085       STORAGE-AQUEOUS =       3.9278E-04     MST                              
                 WEL =       2.6676E-42                   WEL =           0.0000     SSM_WEL-1                        
                 CHD =           0.0000                   CHD =           0.0000     SSM_CHD-1                        

           TOTAL OUT =           5.9085             TOTAL OUT =       3.9278E-04

            IN - OUT =      -4.2307E-09              IN - OUT =      -1.6382E-11

 PERCENT DISCREPANCY =          -0.00     PERCENT DISCREPANCY =          -0.00




         TIME SUMMARY AT END OF TIME STEP    1 IN STRESS PERIOD    6
                    SECONDS     MINUTES      HOURS       DAYS        YEARS
                    -----------------------------------------------------------
   TIME STEP LENGTH  100.00      1.6667     2.77778E-02 1.15741E-03 3.16881E-06
 STRESS PERIOD TIME  100.00      1.6667     2.77778E-02 1.15741E-03 3.16881E-06
         TOTAL TIME  600.00      10.000     0.16667     6.94444E-03 1.90129E-05


end timestep


start timestep kper="7" kstp="1" mode="normal"


 OUTPUT CONTROL FOR STRESS PERIOD 7 IS REPEATED USING SETTINGS FROM A PREVIOUS STRESS PERIOD.
 UBDSV1 SAVING     FLOW-JA-FACE ON UNIT   1026 AT TIME STEP      1, STRESS PERIOD      7
 UBDSV1 SAVING  STORAGE-AQUEOUS ON UNIT   1026 AT TIME STEP      1, STRESS PERIOD      7
 UBDSV06 SAVING  SOURCE-SINK MIX IN MODEL GWT-P09-MF6      PACKAGE GWT-P09-MF6     CONNECTED TO MODEL GWT-P09-MF6      PACKAGE SSM              ON UNIT   1026 AT TIME STEP      1, STRESS PERIOD      7

 SSM PACKAGE (SSM) FLOW RATES   PERIOD      7   STEP        1
 ------------------------------------------------------------------------------------------------
   NUMBER   CELLID                   BOUND Q        SSM CONC          RATE         PACKAGE NAME  
 ------------------------------------------------------------------------------------------------
     1      (1,4,7)               1.00000000E-03  0.0000000       0.0000000           WEL-1      
     2      (1,11,7)             -1.89000000E-02 -1.07819413E-33  0.0000000           WEL-1      
     1      (1,1,1)               0.19680067      0.0000000       0.0000000           CHD-1      
     2      (1,18,1)              1.15309642E-02  0.0000000       0.0000000           CHD-1      
     3      (1,1,2)               0.19679731      0.0000000       0.0000000           CHD-1      
     4      (1,18,2)              1.75964486E-02  0.0000000       0.0000000           CHD-1      
     5      (1,1,3)               0.19679513      0.0000000       0.0000000           CHD-1      
     6      (1,18,3)              1.96566578E-02  0.0000000       0.0000000           CHD-1      
     7      (1,1,4)               0.19679356      0.0000000       0.0000000           CHD-1      
     8      (1,18,4)              2.16440064E-02  0.0000000       0.0000000           CHD-1      
     9      (1,1,5)               0.19679067      0.0000000       0.0000000           CHD-1      
     10     (1,18,5)              2.36160031E-02  0.0000000       0.0000000           CHD-1      
     11     (1,1,6)               0.19678411      0.0000000       0.0000000           CHD-1      
     12     (1,18,6)              2.55850194E-02  0.0000000       0.0000000           CHD-1      
     13     (1,1,7)               0.19677587      0.0000000       0.0000000           CHD-1      
     14     (1,18,7)              2.75533755E-02  0.0000000       0.0000000           CHD-1      
     15     (1,1,8)               0.19678703      0.0000000       0.0000000           CHD-1      
     16     (1,18,8)              2.95212871E-02  0.0000000       0.0000000           CHD-1      
     17     (1,1,9)               0.19679779      0.0000000       0.0000000           CHD-1      
     18     (1,18,9)              3.14892008E-02  0.0000000       0.0000000           CHD-1      
     19     (1,1,10)              0.19680262      0.0000000       0.0000000           CHD-1      
     20     (1,18,10)             3.34577819E-02  0.0000000       0.0000000           CHD-1      
     21     (1,1,11)              0.19680418      0.0000000       0.0000000           CHD-1      
     22     (1,18,11)             3.54295276E-02  0.0000000       0.0000000           CHD-1      
     23     (1,1,12)              0.19680460      0.0000000       0.0000000           CHD-1      
     24     (1,18,12)             3.74167683E-02  0.0000000       0.0000000           CHD-1      
     25     (1,1,13)              0.19680470      0.0000000       0.0000000           CHD-1      
     26     (1,18,13)             3.94769394E-02  0.0000000       0.0000000           CHD-1      
     27     (1,1,14)              0.19680472      0.0000000       0.0000000           CHD-1      
     28     (1,18,14)             4.55424128E-02  0.0000000       0.0000000           CHD-1      
 ------------------------------------------------------------------------------------------------



1
  CONCENTRATION IN LAYER   1 AT END OF TIME STEP   1 IN STRESS PERIOD    7
  ---------------------------------------------------------------------------

                1               2               3               4               5               6               7               8               9              10
               11              12              13              14
 ................................................................................................................................................................
   1     5.827832E-21    1.248964E-18    2.538054E-16    4.733219E-14    7.692571E-12    9.770326E-10    7.210934E-08    9.983651E-10    7.577316E-12    4.332421E-14
         2.125119E-16    9.525182E-19    4.028058E-21    1.642299E-23
   2     2.455749E-20    7.313057E-18    2.104863E-15    5.696847E-13    1.380610E-10    2.671611E-08    2.967404E-06    2.785468E-08    1.416435E-10    5.526996E-13
         1.914980E-15    6.267817E-18    1.986021E-20    6.181048E-23
   3     2.020839E-20    1.294327E-17    8.061753E-15    4.662643E-12    2.365936E-09    9.250595E-07    1.821778E-04    1.012349E-06    2.671497E-09    5.091072E-12
         8.529754E-15    1.336823E-17    2.037393E-20    3.173954E-23
   4     3.737665E-21    6.453194E-18    1.173028E-14    2.014282E-11    2.966951E-08    3.233649E-05    1.792822E-02    3.303666E-05    3.300998E-08    2.301284E-11
         1.344225E-14    7.259224E-18    3.963467E-21    2.533236E-24
   5    -1.063993E-23    2.581808E-20    7.518775E-17    1.562741E-13    2.680315E-10    4.081595E-07    3.052882E-04    3.227363E-07   -6.819576E-11   -1.857566E-13
         2.872506E-17    5.040924E-20    3.273020E-23    2.066180E-26
   6    -2.125999E-25   -7.203896E-25    3.211670E-23    7.568583E-19    1.399374E-15    2.502680E-12    2.719057E-09   -4.160278E-12   -1.502338E-12   -3.768671E-16
         1.035637E-19    8.944689E-23    5.783497E-26    3.641680E-29
   7    -8.723395E-29    3.887218E-33    7.253048E-32    1.602575E-27    3.002762E-24    1.826605E-21    7.079619E-18    9.530715E-19   -7.111436E-16   -1.503140E-20
         5.944772E-23    3.565567E-26    2.316227E-29    1.451649E-32
   8    -7.801792E-33    1.325558E-39    3.345719E-39    2.574221E-36    3.563570E-33   -1.416733E-31    3.499098E-27    2.508211E-25   -7.495287E-20   -4.889048E-23
         4.023096E-27    5.687704E-30    2.477080E-33    1.334123E-36
   9    -1.474777E-37    9.512420E-40    2.317509E-43    1.433783E-39   -3.649258E-37   -7.071255E-35    9.555167E-30    1.170544E-25   -3.840973E-24   -5.118057E-26
        -1.094054E-29    5.751491E-34    2.730290E-37    4.895093E-41
  10    -4.026842E-43    7.468593E-45    2.159451E-46   -5.321445E-43   -1.317950E-39   -2.364035E-35   -7.336148E-31    4.159448E-29   -2.182053E-28   -5.885888E-30
        -1.274511E-32   -4.599173E-37    4.926548E-42    6.017393E-46
  11    -7.592658E-50    3.109176E-50   -1.196285E-49   -8.580386E-45   -4.012486E-40   -4.925899E-36   -1.078194E-33    1.569337E-32   -1.474054E-32   -2.060933E-34
        -1.409978E-36   -1.590310E-39   -4.670208E-44    1.491576E-49
  12    -7.102804E-56    1.389045E-56   -1.296482E-51   -2.627363E-46   -2.410222E-41   -5.554172E-40   -1.136242E-37    7.432691E-37   -1.292434E-37   -2.548393E-38
        -2.123103E-40   -7.646492E-43   -2.647961E-46   -4.100835E-51
  13    -3.790807E-61   -1.436855E-57   -2.758749E-52   -5.636215E-47   -3.067586E-45   -7.694727E-43   -1.395381E-41    3.438023E-41    1.695092E-42   -6.958229E-43
        -3.431925E-44   -1.141373E-46   -1.941764E-49   -5.189877E-53
  14     1.510030E-62    7.426993E-58    2.682393E-53   -2.324730E-51   -1.223863E-48   -7.010453E-47   -1.209298E-45    2.043691E-45    1.976263E-46   -2.750248E-47
        -2.475100E-48   -3.979210E-50   -1.026096E-52   -1.485158E-55
  15    -5.978143E-63   -7.687586E-59    1.017254E-56    3.619510E-54    6.359370E-53   -5.562402E-51   -1.805532E-49    2.907063E-49    3.842539E-50   -3.455098E-51
        -5.050441E-52   -1.548664E-53   -1.420371E-55   -3.433500E-58
  16     7.861083E-64   -1.303419E-61   -3.771942E-59    4.093809E-58    8.620547E-56    3.091076E-56   -7.535299E-53    1.205729E-52    2.105420E-53   -1.144894E-54
        -2.950420E-55   -1.418494E-56   -2.464913E-58   -1.790922E-60
  17     4.996937E-66    1.014003E-63   -4.028527E-62   -2.484889E-60    7.139385E-59    2.479994E-57   -7.641906E-56    1.206192E-55    2.738749E-56   -5.555507E-58
        -3.984974E-58   -2.830362E-59   -7.861890E-61   -1.131420E-62
  18    -1.242239E-67    5.861158E-66    2.376456E-64   -1.180469E-62   -1.870471E-61    1.274191E-59   -1.371129E-58    1.949097E-58    6.578471E-59    2.502026E-60
        -8.770035E-61   -1.108127E-61   -5.267409E-63   -1.395331E-64

 CONCENTRATION WILL BE SAVED ON UNIT 1027 AT END OF TIME STEP    1, STRESS PERIOD    7


  MASS BUDGET FOR ENTIRE MODEL AT END OF TIME STEP    1, STRESS PERIOD   7
  ---------------------------------------------------------------------------------------------------

     CUMULATIVE MASS      M       RATES FOR THIS TIME STEP      M/T          PACKAGE NAME    
     ------------------                 ------------------------                     ----------------

           IN:                                      IN:
           ---                                      ---
     STORAGE-AQUEOUS =           0.1674       STORAGE-AQUEOUS =       4.5912E-04     MST                              
                 WEL =           5.7870                   WEL =           0.0000     SSM_WEL-1                        
                 CHD =           0.0000                   CHD =           0.0000     SSM_CHD-1                        

            TOTAL IN =           5.9544              TOTAL IN =       4.5912E-04

          OUT:                                     OUT:
          ----                                     ----
     STORAGE-AQUEOUS =           5.9544       STORAGE-AQUEOUS =       4.5912E-04     MST                              
                 WEL =       2.6676E-42                   WEL =           0.0000     SSM_WEL-1                        
                 CHD =           0.0000                   CHD =           0.0000     SSM_CHD-1                        

           TOTAL OUT =           5.9544             TOTAL OUT =       4.5912E-04

            IN - OUT =      -5.8120E-09              IN - OUT =      -1.5813E-11

 PERCENT DISCREPANCY =          -0.00     PERCENT DISCREPANCY =          -0.00




         TIME SUMMARY AT END OF TIME STEP    1 IN STRESS PERIOD    7
                    SECONDS     MINUTES      HOURS       DAYS        YEARS
                    -----------------------------------------------------------
   TIME STEP LENGTH  100.00      1.6667     2.77778E-02 1.15741E-03 3.16881E-06
 STRESS PERIOD TIME  100.00      1.6667     2.77778E-02 1.15741E-03 3.16881E-06
         TOTAL TIME  700.00      11.667     0.19444     8.10185E-03 2.21817E-05


end timestep


start timestep kper="8" kstp="1" mode="normal"


 OUTPUT CONTROL FOR STRESS PERIOD 8 IS REPEATED USING SETTINGS FROM A PREVIOUS STRESS PERIOD.
 UBDSV1 SAVING     FLOW-JA-FACE ON UNIT   1026 AT TIME STEP      1, STRESS PERIOD      8
 UBDSV1 SAVING  STORAGE-AQUEOUS ON UNIT   1026 AT TIME STEP      1, STRESS PERIOD      8
 UBDSV06 SAVING  SOURCE-SINK MIX IN MODEL GWT-P09-MF6      PACKAGE GWT-P09-MF6     CONNECTED TO MODEL GWT-P09-MF6      PACKAGE SSM              ON UNIT   1026 AT TIME STEP      1, STRESS PERIOD      8

 SSM PACKAGE (SSM) FLOW RATES   PERIOD      8   STEP        1
 ------------------------------------------------------------------------------------------------
   NUMBER   CELLID                   BOUND Q        SSM CONC          RATE         PACKAGE NAME  
 ------------------------------------------------------------------------------------------------
     1      (1,4,7)               1.00000000E-03  0.0000000       0.0000000           WEL-1      
     2      (1,11,7)             -1.89000000E-02 -1.04770576E-32  0.0000000           WEL-1      
     1      (1,1,1)               0.18580358      0.0000000       0.0000000           CHD-1      
     2      (1,18,1)              1.05748267E-02  0.0000000       0.0000000           CHD-1      
     3      (1,1,2)               0.18579796      0.0000000       0.0000000           CHD-1      
     4      (1,18,2)              1.65814037E-02  0.0000000       0.0000000           CHD-1      
     5      (1,1,3)               0.18579417      0.0000000       0.0000000           CHD-1      
     6      (1,18,3)              1.85500099E-02  0.0000000       0.0000000           CHD-1      
     7      (1,1,4)               0.18579168      0.0000000       0.0000000           CHD-1      
     8      (1,18,4)              2.04329424E-02  0.0000000       0.0000000           CHD-1      
     9      (1,1,5)               0.18578785      0.0000000       0.0000000           CHD-1      
     10     (1,18,5)              2.22965368E-02  0.0000000       0.0000000           CHD-1      
     11     (1,1,6)               0.18578007      0.0000000       0.0000000           CHD-1      
     12     (1,18,6)              2.41560998E-02  0.0000000       0.0000000           CHD-1      
     13     (1,1,7)               0.18577141      0.0000000       0.0000000           CHD-1      
     14     (1,18,7)              2.60146796E-02  0.0000000       0.0000000           CHD-1      
     15     (1,1,8)               0.18578532      0.0000000       0.0000000           CHD-1      
     16     (1,18,8)              2.78725973E-02  0.0000000       0.0000000           CHD-1      
     17     (1,1,9)               0.18580031      0.0000000       0.0000000           CHD-1      
     18     (1,18,9)              2.97304996E-02  0.0000000       0.0000000           CHD-1      
     19     (1,1,10)              0.18580754      0.0000000       0.0000000           CHD-1      
     20     (1,18,10)             3.15893657E-02  0.0000000       0.0000000           CHD-1      
     21     (1,1,11)              0.18581004      0.0000000       0.0000000           CHD-1      
     22     (1,18,11)             3.34525381E-02  0.0000000       0.0000000           CHD-1      
     23     (1,1,12)              0.18581076      0.0000000       0.0000000           CHD-1      
     24     (1,18,12)             3.53352797E-02  0.0000000       0.0000000           CHD-1      
     25     (1,1,13)              0.18581094      0.0000000       0.0000000           CHD-1      
     26     (1,18,13)             3.73038153E-02  0.0000000       0.0000000           CHD-1      
     27     (1,1,14)              0.18581098      0.0000000       0.0000000           CHD-1      
     28     (1,18,14)             4.33103711E-02  0.0000000       0.0000000           CHD-1      
 ------------------------------------------------------------------------------------------------



1
  CONCENTRATION IN LAYER   1 AT END OF TIME STEP   1 IN STRESS PERIOD    8
  ---------------------------------------------------------------------------

                1               2               3               4               5               6               7               8               9              10
               11              12              13              14
 ................................................................................................................................................................
   1     1.144482E-20    2.388168E-18    4.702360E-16    8.444313E-14    1.311432E-11    1.578096E-09    1.098301E-07    1.620170E-09    1.315539E-11    8.003603E-14
         4.143587E-16    1.944414E-18    8.549375E-21    3.604265E-23
   2     5.101297E-20    1.454106E-17    3.982191E-15    1.016915E-12    2.299662E-10    4.102603E-08    4.205633E-06    4.317139E-08    2.412162E-10    1.020675E-12
         3.781231E-15    1.308290E-17    4.347504E-20    1.411378E-22
   3     5.305749E-20    3.040067E-17    1.677745E-14    8.535666E-12    3.777360E-09    1.277146E-06    2.251224E-04    1.422792E-06    4.394072E-09    9.630716E-12
         1.827790E-14    3.216050E-17    5.445721E-20    9.258661E-23
   4     1.380242E-20    1.940303E-17    2.861838E-14    3.969892E-11    4.672737E-08    4.019980E-05    1.756242E-02    4.142529E-05    5.367568E-08    4.713416E-11
         3.396696E-14    2.227729E-17    1.443334E-20    1.040080E-23
   5    -5.052016E-23    1.091818E-19    2.532178E-16    4.291242E-13    6.045152E-10    7.105375E-07    4.094647E-04    5.871363E-07    6.042131E-11   -3.806281E-13
         1.079920E-16    2.020548E-19    1.559691E-22    1.117554E-25
   6    -1.443544E-24   -4.169602E-24    6.705762E-23    3.014948E-18    4.955937E-15    7.065558E-12    5.489487E-09   -8.785996E-12   -3.923855E-12   -1.408849E-15
         4.283122E-19    4.941933E-22    3.816144E-25    2.724426E-28
   7    -8.762137E-28   -2.011853E-32    2.855528E-31    1.023547E-26    1.725627E-23    1.200336E-20    2.324608E-17    3.431523E-18   -2.849136E-15   -2.214658E-19
         3.796245E-22    2.915516E-25    2.250467E-28    1.595912E-31
   8    -1.234967E-31    1.933918E-38    3.753277E-38    2.362359E-35    3.552799E-32    2.029270E-30    1.686683E-26    1.374950E-24   -4.798512E-19   -3.053216E-22
         2.225201E-26    6.532097E-29    3.684944E-32    2.291561E-35
   9    -3.917596E-36    2.589567E-38    3.014211E-42    1.928593E-38    3.389078E-36   -4.165934E-34    9.781398E-29    9.968117E-25   -3.661216E-23   -4.607647E-25
        -1.080877E-28    6.112764E-33    5.202407E-36    1.298862E-39
  10    -1.887925E-41    3.339255E-43    2.766682E-45    3.979251E-42   -1.273345E-38   -2.101556E-34   -6.788296E-30    4.399456E-28   -2.637547E-27   -7.149292E-29
        -1.562744E-31   -7.020867E-36    1.102238E-40    3.935705E-44
  11    -6.246449E-48    2.249384E-48   -1.032968E-49   -1.155726E-43   -4.541092E-39   -5.017995E-35   -1.047706E-32    1.834985E-31   -2.030051E-31   -3.228003E-33
        -2.676165E-35   -3.362356E-38   -1.175378E-42    7.009660E-48
  12    -9.098051E-54    5.843196E-54   -3.220383E-50   -4.391581E-45   -2.966547E-40   -7.776557E-39   -1.493229E-36    9.841060E-36   -2.307415E-36   -4.916384E-37
        -4.897306E-39   -2.052912E-41   -8.368195E-45   -1.640502E-49
  13    -6.872622E-59   -4.668840E-56   -6.507008E-51   -9.034264E-46   -5.282738E-44   -1.199411E-41   -2.143244E-40    5.607471E-40    1.216801E-41   -1.751828E-41
        -9.236819E-43   -3.869543E-45   -7.742153E-48   -2.435932E-51
  14     5.603333E-61    2.151404E-56    5.818866E-52   -4.804467E-50   -2.275224E-47   -1.306186E-45   -2.281696E-44    4.260718E-44    3.262765E-45   -1.001959E-45
        -8.787751E-47   -1.528445E-48   -4.815920E-51   -8.066379E-54
  15    -1.990998E-61   -2.100716E-57    2.687779E-55    8.542740E-53    1.650850E-51   -1.219167E-49   -4.189811E-48    7.442242E-48    8.435893E-49   -1.718595E-49
        -2.222914E-50   -7.111877E-52   -7.030856E-54   -2.034087E-56
  16     2.497456E-62   -4.017183E-60   -1.045757E-57    7.894212E-57    2.310388E-54    6.644266E-54   -1.980808E-51    3.470345E-51    5.428939E-52   -7.790185E-53
        -1.490604E-53   -7.294277E-55   -1.330170E-56   -1.042978E-58
  17     1.650208E-64    3.041820E-62   -1.059221E-60   -7.607415E-59    1.770894E-57    7.687099E-56   -2.090683E-54    3.582548E-54    7.524727E-55   -7.012742E-56
        -2.155516E-56   -1.514666E-57   -4.354982E-59   -6.605006E-61
  18    -3.818347E-66    1.611841E-64    7.754394E-63   -3.159244E-61   -6.721154E-60    3.655062E-58   -3.704750E-57    5.640913E-57    1.823669E-57   -2.875019E-59
        -5.132705E-59   -5.906313E-60   -2.849870E-61   -7.867314E-63

 CONCENTRATION WILL BE SAVED ON UNIT 1027 AT END OF TIME STEP    1, STRESS PERIOD    8


  MASS BUDGET FOR ENTIRE MODEL AT END OF TIME STEP    1, STRESS PERIOD   8
  ---------------------------------------------------------------------------------------------------

     CUMULATIVE MASS      M       RATES FOR THIS TIME STEP      M/T          PACKAGE NAME    
     ------------------                 ------------------------                     ----------------

           IN:                                      IN:
           ---                                      ---
     STORAGE-AQUEOUS =           0.2191       STORAGE-AQUEOUS =       5.1686E-04     MST                              
                 WEL =           5.7870                   WEL =           0.0000     SSM_WEL-1                        
                 CHD =           0.0000                   CHD =           0.0000     SSM_CHD-1                        

            TOTAL IN =           6.0061              TOTAL IN =       5.1686E-04

          OUT:                                     OUT:
          ----                                     ----
     STORAGE-AQUEOUS =           6.0061       STORAGE-AQUEOUS =       5.1686E-04     MST                              
                 WEL =       2.6676E-42                   WEL =           0.0000     SSM_WEL-1                        
                 CHD =           0.0000                   CHD =           0.0000     SSM_CHD-1                        

           TOTAL OUT =           6.0061             TOTAL OUT =       5.1686E-04

            IN - OUT =      -7.2580E-09              IN - OUT =      -1.4460E-11

 PERCENT DISCREPANCY =          -0.00     PERCENT DISCREPANCY =          -0.00




         TIME SUMMARY AT END OF TIME STEP    1 IN STRESS PERIOD    8
                    SECONDS     MINUTES      HOURS       DAYS        YEARS
                    -----------------------------------------------------------
   TIME STEP LENGTH  100.00      1.6667     2.77778E-02 1.15741E-03 3.16881E-06
 STRESS PERIOD TIME  100.00      1.6667     2.77778E-02 1.15741E-03 3.16881E-06
         TOTAL TIME  800.00      13.333     0.22222     9.25926E-03 2.53505E-05


end timestep


start timestep kper="9" kstp="1" mode="normal"


 OUTPUT CONTROL FOR STRESS PERIOD 9 IS REPEATED USING SETTINGS FROM A PREVIOUS STRESS PERIOD.
 UBDSV1 SAVING     FLOW-JA-FACE ON UNIT   1026 AT TIME STEP      1, STRESS PERIOD      9
 UBDSV1 SAVING  STORAGE-AQUEOUS ON UNIT   1026 AT TIME STEP      1, STRESS PERIOD      9
 UBDSV06 SAVING  SOURCE-SINK MIX IN MODEL GWT-P09-MF6      PACKAGE GWT-P09-MF6     CONNECTED TO MODEL GWT-P09-MF6      PACKAGE SSM              ON UNIT   1026 AT TIME STEP      1, STRESS PERIOD      9

 SSM PACKAGE (SSM) FLOW RATES   PERIOD      9   STEP        1
 ------------------------------------------------------------------------------------------------
   NUMBER   CELLID                   BOUND Q        SSM CONC          RATE         PACKAGE NAME  
 ------------------------------------------------------------------------------------------------
     1      (1,4,7)               1.00000000E-03  0.0000000       0.0000000           WEL-1      
     2      (1,11,7)             -1.89000000E-02 -7.63691666E-32  0.0000000           WEL-1      
     1      (1,1,1)               0.17630386      0.0000000       0.0000000           CHD-1      
     2      (1,18,1)              9.74243351E-03  0.0000000       0.0000000           CHD-1      
     3      (1,1,2)               0.17629505      0.0000000       0.0000000           CHD-1      
     4      (1,18,2)              1.57008257E-02  0.0000000       0.0000000           CHD-1      
     5      (1,1,3)               0.17628892      0.0000000       0.0000000           CHD-1      
     6      (1,18,3)              1.75926043E-02  0.0000000       0.0000000           CHD-1      
     7      (1,1,4)               0.17628512      0.0000000       0.0000000           CHD-1      
     8      (1,18,4)              1.93865121E-02  0.0000000       0.0000000           CHD-1      
     9      (1,1,5)               0.17628022      0.0000000       0.0000000           CHD-1      
     10     (1,18,5)              2.11569594E-02  0.0000000       0.0000000           CHD-1      
     11     (1,1,6)               0.17627137      0.0000000       0.0000000           CHD-1      
     12     (1,18,6)              2.29221898E-02  0.0000000       0.0000000           CHD-1      
     13     (1,1,7)               0.17626281      0.0000000       0.0000000           CHD-1      
     14     (1,18,7)              2.46860323E-02  0.0000000       0.0000000           CHD-1      
     15     (1,1,8)               0.17628018      0.0000000       0.0000000           CHD-1      
     16     (1,18,8)              2.64489406E-02  0.0000000       0.0000000           CHD-1      
     17     (1,1,9)               0.17630062      0.0000000       0.0000000           CHD-1      
     18     (1,18,9)              2.82118030E-02  0.0000000       0.0000000           CHD-1      
     19     (1,1,10)              0.17631112      0.0000000       0.0000000           CHD-1      
     20     (1,18,10)             2.99759846E-02  0.0000000       0.0000000           CHD-1      
     21     (1,1,11)              0.17631495      0.0000000       0.0000000           CHD-1      
     22     (1,18,11)             3.17457681E-02  0.0000000       0.0000000           CHD-1      
     23     (1,1,12)              0.17631610      0.0000000       0.0000000           CHD-1      
     24     (1,18,12)             3.35393615E-02  0.0000000       0.0000000           CHD-1      
     25     (1,1,13)              0.17631641      0.0000000       0.0000000           CHD-1      
     26     (1,18,13)             3.54310183E-02  0.0000000       0.0000000           CHD-1      
     27     (1,1,14)              0.17631647      0.0000000       0.0000000           CHD-1      
     28     (1,18,14)             4.13893726E-02  0.0000000       0.0000000           CHD-1      
 ------------------------------------------------------------------------------------------------



1
  CONCENTRATION IN LAYER   1 AT END OF TIME STEP   1 IN STRESS PERIOD    9
  ---------------------------------------------------------------------------

                1               2               3               4               5               6               7               8               9              10
               11              12              13              14
 ................................................................................................................................................................
   1     2.103689E-20    4.276431E-18    8.165904E-16    1.413835E-13    2.102078E-11    2.402435E-09    1.579603E-07    2.479477E-09    2.142079E-11    1.377882E-13
         7.487119E-16    3.662435E-18    1.668954E-20    7.258236E-23
   2     9.845675E-20    2.692538E-17    7.034763E-15    1.700629E-12    3.604685E-10    5.962975E-08    5.660233E-06    6.339206E-08    3.862368E-10    1.758444E-12
         6.921423E-15    2.519630E-17    8.747913E-20    2.952659E-22
   3     1.244763E-19    6.453603E-17    3.199598E-14    1.453685E-11    5.701602E-09    1.695676E-06    2.686942E-04    1.924900E-06    6.848293E-09    1.697896E-11
         3.591705E-14    6.987906E-17    1.297673E-19    2.387996E-22
   4     4.343221E-20    5.065801E-17    6.199609E-14    7.126669E-11    6.896100E-08    4.831566E-05    1.717591E-02    5.031995E-05    8.216255E-08    8.841754E-11
         7.655431E-14    5.949859E-17    4.485845E-20    3.623062E-23
   5    -1.853295E-22    3.811817E-19    7.200576E-16    1.018943E-12    1.200657E-09    1.135930E-06    5.259672E-04    9.759827E-07    4.731779E-10   -6.447031E-13
         3.466601E-16    6.830265E-19    6.138538E-22    4.958735E-25
   6    -7.643498E-24   -1.925529E-23   -1.173562E-22    9.941077E-18    1.448357E-14    1.695707E-11    1.013731E-08   -1.693213E-11   -8.757018E-12   -4.367015E-15
         1.485258E-18    2.210039E-21    1.999155E-24    1.608013E-27
   7    -6.557904E-27   -4.977396E-31   -7.525467E-32    5.159751E-26    7.778081E-23    5.243772E-20    6.641500E-17    1.061300E-17   -9.328011E-15   -1.463386E-18
         1.923611E-21    1.842576E-24    1.658161E-27    1.322198E-30
   8    -1.383292E-30    1.794569E-37    3.130608E-37    1.624342E-34    2.289179E-31    2.067452E-29    6.798859E-26    6.047748E-24   -2.389547E-18   -1.533527E-21
         1.135225E-25    5.643121E-28    3.963474E-31    2.814718E-34
   9    -6.952786E-35    4.704474E-37    2.953350E-41    1.569750E-37    4.735604E-35   -1.608454E-33    7.402006E-28    6.441347E-24   -2.621157E-22   -3.127760E-24
        -8.152228E-28    5.772127E-32    7.105884E-35    2.349819E-38
  10    -5.556368E-40    9.415770E-42   -1.942957E-45    7.627159E-41   -8.995238E-38   -1.327296E-33   -4.724062E-29    3.453233E-27   -2.335919E-26   -6.320255E-28
        -1.400880E-30   -7.916079E-35    1.995383E-39    1.199556E-42
  11    -3.047662E-46    9.690517E-47    7.344902E-48   -1.116905E-42   -3.767520E-38   -3.807584E-34   -7.636917E-32    1.576949E-30   -2.002218E-30   -3.623192E-32
        -3.542356E-34   -4.882431E-37   -2.037498E-41    2.253336E-46
  12    -6.509478E-52    3.734258E-52   -5.377258E-49   -5.215820E-44   -2.677129E-39   -8.009676E-38   -1.432540E-35    9.540840E-35   -2.808021E-35   -6.570850E-36
        -7.663159E-38   -3.680811E-40   -1.731758E-43   -4.273918E-48
  13    -6.684388E-57   -9.746684E-55   -1.029059E-49   -1.020104E-44   -6.489845E-43   -1.331926E-40   -2.368805E-39    6.556052E-39   -6.249977E-41   -2.932921E-40
        -1.656791E-41   -8.493393E-44   -1.964489E-46   -7.142049E-50
  14     1.307888E-59    4.096512E-55    8.585154E-51   -6.679423E-49   -2.910993E-46   -1.694728E-44   -3.030645E-43    6.179860E-43    3.218891E-44   -2.240412E-44
        -1.997269E-45   -3.754761E-47   -1.406236E-49   -2.680864E-52
  15    -4.292191E-60   -3.785179E-56    4.649105E-54    1.347625E-51    2.918638E-50   -1.788303E-48   -6.654953E-47    1.287284E-46    1.161344E-47   -4.796613E-48
        -6.028787E-49   -2.027442E-50   -2.155462E-52   -7.267616E-55
  16     5.125235E-61   -7.960317E-59   -1.899372E-56    7.133761E-56    4.094245E-53    2.329660E-52   -3.500840E-50    6.628229E-50    8.877594E-51   -2.571201E-51
        -4.495763E-52   -2.275857E-53   -4.364105E-55   -3.678499E-57
  17     3.484236E-63    5.929860E-61   -1.745002E-59   -1.526678E-57    2.767427E-56    1.577901E-54   -3.827048E-53    7.027407E-53    1.325399E-53   -2.705334E-54
        -6.783072E-55   -4.856603E-56   -1.453776E-57   -2.322679E-59
  18    -7.637719E-65    2.823852E-63    1.654846E-61   -5.461338E-60   -1.556115E-58    7.017342E-57   -6.733567E-56    1.084514E-55    3.303066E-56   -3.031948E-57
        -1.652929E-57   -1.868445E-58   -9.285283E-60   -2.678744E-61

 CONCENTRATION WILL BE SAVED ON UNIT 1027 AT END OF TIME STEP    1, STRESS PERIOD    9


  MASS BUDGET FOR ENTIRE MODEL AT END OF TIME STEP    1, STRESS PERIOD   9
  ---------------------------------------------------------------------------------------------------

     CUMULATIVE MASS      M       RATES FOR THIS TIME STEP      M/T          PACKAGE NAME    
     ------------------                 ------------------------                     ----------------

           IN:                                      IN:
           ---                                      ---
     STORAGE-AQUEOUS =           0.2756       STORAGE-AQUEOUS =       5.6525E-04     MST                              
                 WEL =           5.7870                   WEL =           0.0000     SSM_WEL-1                        
                 CHD =           0.0000                   CHD =           0.0000     SSM_CHD-1                        

            TOTAL IN =           6.0626              TOTAL IN =       5.6525E-04

          OUT:                                     OUT:
          ----                                     ----
     STORAGE-AQUEOUS =           6.0626       STORAGE-AQUEOUS =       5.6525E-04     MST                              
                 WEL =       2.6676E-42                   WEL =           0.0000     SSM_WEL-1                        
                 CHD =           0.0000                   CHD =           0.0000     SSM_CHD-1                        

           TOTAL OUT =           6.0626             TOTAL OUT =       5.6525E-04

            IN - OUT =      -8.5255E-09              IN - OUT =      -1.2675E-11

 PERCENT DISCREPANCY =          -0.00     PERCENT DISCREPANCY =          -0.00




         TIME SUMMARY AT END OF TIME STEP    1 IN STRESS PERIOD    9
                    SECONDS     MINUTES      HOURS       DAYS        YEARS
                    -----------------------------------------------------------
   TIME STEP LENGTH  100.00      1.6667     2.77778E-02 1.15741E-03 3.16881E-06
 STRESS PERIOD TIME  100.00      1.6667     2.77778E-02 1.15741E-03 3.16881E-06
         TOTAL TIME  900.00      15.000     0.25000     1.04167E-02 2.85193E-05


end timestep


start timestep kper="10" kstp="1" mode="normal"


 OUTPUT CONTROL FOR STRESS PERIOD 10 IS REPEATED USING SETTINGS FROM A PREVIOUS STRESS PERIOD.
 UBDSV1 SAVING     FLOW-JA-FACE ON UNIT   1026 AT TIME STEP      1, STRESS PERIOD     10
 UBDSV1 SAVING  STORAGE-AQUEOUS ON UNIT   1026 AT TIME STEP      1, STRESS PERIOD     10
 UBDSV06 SAVING  SOURCE-SINK MIX IN MODEL GWT-P09-MF6      PACKAGE GWT-P09-MF6     CONNECTED TO MODEL GWT-P09-MF6      PACKAGE SSM              ON UNIT   1026 AT TIME STEP      1, STRESS PERIOD     10

 SSM PACKAGE (SSM) FLOW RATES   PERIOD     10   STEP        1
 ------------------------------------------------------------------------------------------------
   NUMBER   CELLID                   BOUND Q        SSM CONC          RATE         PACKAGE NAME  
 ------------------------------------------------------------------------------------------------
     1      (1,4,7)               1.00000000E-03  0.0000000       0.0000000           WEL-1      
     2      (1,11,7)             -1.89000000E-02 -4.41386762E-31  0.0000000           WEL-1      
     1      (1,1,1)               0.16801737      0.0000000       0.0000000           CHD-1      
     2      (1,18,1)              9.01104868E-03  0.0000000       0.0000000           CHD-1      
     3      (1,1,2)               0.16800427      0.0000000       0.0000000           CHD-1      
     4      (1,18,2)              1.49294938E-02  0.0000000       0.0000000           CHD-1      
     5      (1,1,3)               0.16799485      0.0000000       0.0000000           CHD-1      
     6      (1,18,3)              1.67562028E-02  0.0000000       0.0000000           CHD-1      
     7      (1,1,4)               0.16798926      0.0000000       0.0000000           CHD-1      
     8      (1,18,4)              1.84735508E-02  0.0000000       0.0000000           CHD-1      
     9      (1,1,5)               0.16798317      0.0000000       0.0000000           CHD-1      
     10     (1,18,5)              2.01632589E-02  0.0000000       0.0000000           CHD-1      
     11     (1,1,6)               0.16797345      0.0000000       0.0000000           CHD-1      
     12     (1,18,6)              2.18464478E-02  0.0000000       0.0000000           CHD-1      
     13     (1,1,7)               0.16796562      0.0000000       0.0000000           CHD-1      
     14     (1,18,7)              2.35277603E-02  0.0000000       0.0000000           CHD-1      
     15     (1,1,8)               0.16798741      0.0000000       0.0000000           CHD-1      
     16     (1,18,8)              2.52078104E-02  0.0000000       0.0000000           CHD-1      
     17     (1,1,9)               0.16801479      0.0000000       0.0000000           CHD-1      
     18     (1,18,9)              2.68877690E-02  0.0000000       0.0000000           CHD-1      
     19     (1,1,10)              0.16802961      0.0000000       0.0000000           CHD-1      
     20     (1,18,10)             2.85694572E-02  0.0000000       0.0000000           CHD-1      
     21     (1,1,11)              0.16803529      0.0000000       0.0000000           CHD-1      
     22     (1,18,11)             3.02581762E-02  0.0000000       0.0000000           CHD-1      
     23     (1,1,12)              0.16803707      0.0000000       0.0000000           CHD-1      
     24     (1,18,12)             3.19750355E-02  0.0000000       0.0000000           CHD-1      
     25     (1,1,13)              0.16803756      0.0000000       0.0000000           CHD-1      
     26     (1,18,13)             3.38015473E-02  0.0000000       0.0000000           CHD-1      
     27     (1,1,14)              0.16803768      0.0000000       0.0000000           CHD-1      
     28     (1,18,14)             3.97199286E-02  0.0000000       0.0000000           CHD-1      
 ------------------------------------------------------------------------------------------------



1
  CONCENTRATION IN LAYER   1 AT END OF TIME STEP   1 IN STRESS PERIOD   10
  ---------------------------------------------------------------------------

                1               2               3               4               5               6               7               8               9              10
               11              12              13              14
 ................................................................................................................................................................
   1     3.662606E-20    7.256793E-18    1.344872E-15    2.247634E-13    3.204618E-11    3.486477E-09    2.170442E-07    3.619286E-09    3.313142E-11    2.242726E-13
         1.273677E-15    6.472622E-18    3.048880E-20    1.365075E-22
   2     1.789154E-19    4.702756E-17    1.174770E-14    2.696035E-12    5.376591E-10    8.288132E-08    7.313391E-06    8.910598E-08    5.886296E-10    2.866421E-12
         1.192686E-14    4.550011E-17    1.645175E-19    5.757242E-22
   3     2.669805E-19    1.263400E-16    5.686368E-14    2.333852E-11    8.214050E-09    2.177494E-06    3.120543E-04    2.521506E-06    1.021197E-08    2.828691E-11
         6.586614E-14    1.400037E-16    2.821496E-19    5.578757E-22
   4     1.203417E-19    1.182090E-16    1.221435E-13    1.187241E-10    9.660729E-08    5.651238E-05    1.677515E-02    5.961296E-05    1.199164E-07    1.547498E-10
         1.575960E-13    1.422924E-16    1.228177E-19    1.103951E-22
   5    -5.406484E-22    1.147236E-18    1.793702E-15    2.159758E-12    2.166402E-09    1.703642E-06    6.526045E-04    1.517700E-06    1.444236E-09   -8.435364E-13
         9.898779E-16    2.018429E-18    2.073397E-21    1.873303E-24
   6    -3.325200E-23   -7.426056E-23   -1.725492E-21    2.821195E-17    3.667500E-14    3.619383E-11    1.741780E-08   -3.023006E-11   -1.707451E-11   -1.161406E-14
         4.478778E-18    8.349801E-21    8.704445E-24    7.830153E-27
   7    -3.886211E-26   -4.589987E-30   -9.444236E-30    2.153024E-25    2.915126E-22    1.826426E-19    1.694372E-16    2.900064E-17   -2.580894E-14   -6.852102E-18
         8.077864E-21    9.473928E-24    9.783415E-27    8.709183E-30
   8    -1.176379E-29    1.001024E-36    2.057357E-36    8.936628E-34    1.141386E-30    1.208604E-28    2.385846E-25    2.218041E-23   -9.672450E-18   -6.519305E-21
         6.124825E-25    3.870584E-27    3.283180E-30    2.634686E-33
   9    -8.940628E-34    6.185588E-36    2.485387E-40    9.504691E-37    3.352379E-34   -3.305309E-33    4.399318E-27    3.322372E-23   -1.484211E-21   -1.688184E-23
        -4.967396E-27    5.042036E-31    7.410634E-34    3.118469E-37
  10    -1.126086E-38    1.836335E-40   -5.164212E-43    6.472691E-40   -4.841132E-37   -6.159279E-33   -2.610069E-28    2.128407E-26   -1.608867E-25   -4.323374E-27
        -9.780282E-30   -7.014274E-34    3.024325E-38    2.413446E-41
  11    -9.733889E-45    2.753477E-45    5.733329E-47   -8.258657E-42   -2.433664E-37   -2.278431E-33   -4.413868E-31    1.058143E-29   -1.509862E-29   -3.117377E-31
        -3.500551E-33   -5.225169E-36   -2.605433E-40    5.184085E-45
  12    -2.905082E-50    1.486493E-50   -6.450463E-48   -4.697198E-43   -1.884929E-38   -6.413557E-37   -1.068206E-34    7.208762E-34   -2.529339E-34   -6.530563E-35
        -8.798050E-37   -4.763556E-39   -2.543573E-42   -7.844947E-47
  13    -3.912985E-55   -1.416679E-53   -1.180039E-48   -8.707894E-44   -6.056267E-42   -1.128428E-39   -2.013143E-38    5.877219E-38   -2.515242E-39   -3.556737E-39
        -2.145321E-40   -1.317592E-42   -3.462408E-45   -1.431584E-48
  14     2.026573E-58    5.578101E-54    9.315836E-50   -6.729442E-48   -2.764834E-45   -1.647318E-43   -3.042900E-42    6.712075E-42    1.664139E-43   -3.454475E-43
        -3.181206E-44   -6.446327E-46   -2.811345E-48   -6.002684E-51
  15    -6.550401E-59   -4.897704E-55    5.720704E-53    1.543886E-50    3.773325E-49   -1.897840E-47   -7.819655E-46    1.630266E-45    1.049457E-46   -8.822940E-47
        -1.116303E-47   -3.953026E-49   -4.505404E-51   -1.735485E-53
  16     7.437924E-60   -1.108554E-57   -2.469023E-55   -1.004077E-55    5.212253E-52    4.599580E-51   -4.517038E-49    9.147231E-49    9.953093E-50   -5.318981E-50
        -9.081006E-51   -4.783484E-52   -9.640508E-54   -8.699876E-56
  17     5.154478E-62    8.231540E-60   -1.947242E-58   -2.184236E-56    2.893033E-55    2.332134E-53   -5.099284E-52    9.932245E-52    1.634628E-52   -6.044708E-53
        -1.412634E-53   -1.042332E-54   -3.252700E-56   -5.464939E-58
  18    -1.089832E-63    3.434536E-62    2.510787E-60   -6.593058E-59   -2.543628E-57    9.803428E-56   -8.949394E-55    1.510172E-54    4.279115E-55   -8.300609E-56
        -3.460055E-56   -3.950096E-57   -2.032262E-58   -6.125865E-60

 CONCENTRATION WILL BE SAVED ON UNIT 1027 AT END OF TIME STEP    1, STRESS PERIOD   10


  MASS BUDGET FOR ENTIRE MODEL AT END OF TIME STEP    1, STRESS PERIOD  10
  ---------------------------------------------------------------------------------------------------

     CUMULATIVE MASS      M       RATES FOR THIS TIME STEP      M/T          PACKAGE NAME    
     ------------------                 ------------------------                     ----------------

           IN:                                      IN:
           ---                                      ---
     STORAGE-AQUEOUS =           0.3360       STORAGE-AQUEOUS =       6.0421E-04     MST                              
                 WEL =           5.7870                   WEL =           0.0000     SSM_WEL-1                        
                 CHD =           0.0000                   CHD =           0.0000     SSM_CHD-1                        

            TOTAL IN =           6.1230              TOTAL IN =       6.0421E-04

          OUT:                                     OUT:
          ----                                     ----
     STORAGE-AQUEOUS =           6.1230       STORAGE-AQUEOUS =       6.0421E-04     MST                              
                 WEL =       2.6676E-42                   WEL =           0.0000     SSM_WEL-1                        
                 CHD =           0.0000                   CHD =           0.0000     SSM_CHD-1                        

           TOTAL OUT =           6.1230             TOTAL OUT =       6.0421E-04

            IN - OUT =      -9.5933E-09              IN - OUT =      -1.0678E-11

 PERCENT DISCREPANCY =          -0.00     PERCENT DISCREPANCY =          -0.00




         TIME SUMMARY AT END OF TIME STEP    1 IN STRESS PERIOD   10
                    SECONDS     MINUTES      HOURS       DAYS        YEARS
                    -----------------------------------------------------------
   TIME STEP LENGTH  100.00      1.6667     2.77778E-02 1.15741E-03 3.16881E-06
 STRESS PERIOD TIME  100.00      1.6667     2.77778E-02 1.15741E-03 3.16881E-06
         TOTAL TIME  1000.0      16.667     0.27778     1.15741E-02 3.16881E-05


end timestep


start timestep kper="11" kstp="1" mode="normal"


 OUTPUT CONTROL FOR STRESS PERIOD 11 IS REPEATED USING SETTINGS FROM A PREVIOUS STRESS PERIOD.
 UBDSV1 SAVING     FLOW-JA-FACE ON UNIT   1026 AT TIME STEP      1, STRESS PERIOD     11
 UBDSV1 SAVING  STORAGE-AQUEOUS ON UNIT   1026 AT TIME STEP      1, STRESS PERIOD     11
 UBDSV06 SAVING  SOURCE-SINK MIX IN MODEL GWT-P09-MF6      PACKAGE GWT-P09-MF6     CONNECTED TO MODEL GWT-P09-MF6      PACKAGE SSM              ON UNIT   1026 AT TIME STEP      1, STRESS PERIOD     11

 SSM PACKAGE (SSM) FLOW RATES   PERIOD     11   STEP        1
 ------------------------------------------------------------------------------------------------
   NUMBER   CELLID                   BOUND Q        SSM CONC          RATE         PACKAGE NAME  
 ------------------------------------------------------------------------------------------------
     1      (1,4,7)               1.00000000E-03  0.0000000       0.0000000           WEL-1      
     2      (1,11,7)             -1.89000000E-02 -2.10137763E-30  0.0000000           WEL-1      
     1      (1,1,1)               0.16072368      0.0000000       0.0000000           CHD-1      
     2      (1,18,1)              8.36292883E-03  0.0000000       0.0000000           CHD-1      
     3      (1,1,2)               0.16070502      0.0000000       0.0000000           CHD-1      
     4      (1,18,2)              1.42478472E-02  0.0000000       0.0000000           CHD-1      
     5      (1,1,3)               0.16069120      0.0000000       0.0000000           CHD-1      
     6      (1,18,3)              1.60189363E-02  0.0000000       0.0000000           CHD-1      
     7      (1,1,4)               0.16068323      0.0000000       0.0000000           CHD-1      
     8      (1,18,4)              1.76699150E-02  0.0000000       0.0000000           CHD-1      
     9      (1,1,5)               0.16067578      0.0000000       0.0000000           CHD-1      
     10     (1,18,5)              1.92890791E-02  0.0000000       0.0000000           CHD-1      
     11     (1,1,6)               0.16066546      0.0000000       0.0000000           CHD-1      
     12     (1,18,6)              2.09003226E-02  0.0000000       0.0000000           CHD-1      
     13     (1,1,7)               0.16065911      0.0000000       0.0000000           CHD-1      
     14     (1,18,7)              2.25091174E-02  0.0000000       0.0000000           CHD-1      
     15     (1,1,8)               0.16068654      0.0000000       0.0000000           CHD-1      
     16     (1,18,8)              2.41162662E-02  0.0000000       0.0000000           CHD-1      
     17     (1,1,9)               0.16072265      0.0000000       0.0000000           CHD-1      
     18     (1,18,9)              2.57232606E-02  0.0000000       0.0000000           CHD-1      
     19     (1,1,10)              0.16074305      0.0000000       0.0000000           CHD-1      
     20     (1,18,10)             2.73324442E-02  0.0000000       0.0000000           CHD-1      
     21     (1,1,11)              0.16075121      0.0000000       0.0000000           CHD-1      
     22     (1,18,11)             2.89501997E-02  0.0000000       0.0000000           CHD-1      
     23     (1,1,12)              0.16075387      0.0000000       0.0000000           CHD-1      
     24     (1,18,12)             3.06004548E-02  0.0000000       0.0000000           CHD-1      
     25     (1,1,13)              0.16075463      0.0000000       0.0000000           CHD-1      
     26     (1,18,13)             3.23712403E-02  0.0000000       0.0000000           CHD-1      
     27     (1,1,14)              0.16075482      0.0000000       0.0000000           CHD-1      
     28     (1,18,14)             3.82560572E-02  0.0000000       0.0000000           CHD-1      
 ------------------------------------------------------------------------------------------------



1
  CONCENTRATION IN LAYER   1 AT END OF TIME STEP   1 IN STRESS PERIOD   11
  ---------------------------------------------------------------------------

                1               2               3               4               5               6               7               8               9              10
               11              12              13              14
 ................................................................................................................................................................
   1     6.093945E-20    1.177324E-17    2.119126E-15    3.422252E-13    4.686347E-11    4.863863E-09    2.873670E-07    5.081628E-09    4.913247E-11    3.487436E-13
         2.063150E-15    1.086224E-17    5.277244E-20    2.428270E-22
   2     3.092034E-19    7.822598E-17    1.871741E-14    4.087525E-12    7.694566E-10    1.110138E-07    9.143645E-06    1.208274E-07    8.615298E-10    4.466679E-12
         1.956489E-14    7.795188E-17    2.927109E-19    1.059458E-21
   3     5.323964E-19    2.314866E-16    9.535219E-14    3.567214E-11    1.137713E-08    2.717286E-06    3.545462E-04    3.213602E-06    1.467728E-08    4.499177E-11
         1.141806E-13    2.625894E-16    5.693390E-19    1.201745E-21
   4     3.007108E-19    2.518186E-16    2.227609E-13    1.860808E-10    1.296909E-07    6.463929E-05    1.636572E-02    6.921831E-05    1.684320E-07    2.561527E-10
         3.015614E-13    3.111593E-16    3.032452E-19    3.011232E-22
   5    -1.249111E-21    3.069100E-18    4.018784E-15    4.179072E-12    3.623722E-09    2.427244E-06    7.871390E-04    2.241488E-06    3.395564E-09   -5.795547E-13
         2.583051E-15    5.355415E-18    6.183694E-21    6.196772E-24
   6    -1.233790E-22   -2.472652E-22   -8.999384E-21    7.088159E-17    8.300654E-14    7.055338E-11    2.820108E-08   -5.055831E-11   -2.936587E-11   -2.706194E-14
         1.210160E-17    2.751220E-20    3.258521E-23    3.253087E-26
   7    -1.904886E-25   -2.896190E-29   -7.706229E-29    7.698317E-25    9.436947E-22    5.435148E-19    3.935448E-16    7.151082E-17   -6.159599E-14   -2.549909E-17
         2.905122E-20    4.115989E-23    4.812030E-26    4.747054E-29
   8    -7.991559E-29    1.437501E-36    1.111261E-35    4.110645E-33    4.736739E-30    5.394845E-28    7.515797E-25    6.924288E-23   -3.277122E-17   -2.425633E-20
         3.404518E-24    2.194952E-26    2.194546E-29    1.970523E-32
   9    -8.833944E-33    6.242445E-35    1.987868E-39    4.650905E-36    1.744518E-33    3.317391E-33    2.139031E-26    1.415453E-22   -6.884851E-21   -7.513411E-23
        -2.540231E-26    3.930607E-30    6.183569E-33    3.204554E-36
  10    -1.680868E-37    2.648993E-39   -8.999711E-42    3.875743E-39   -2.033188E-36   -2.071065E-32   -1.188180E-27    1.070832E-25   -8.978668E-25   -2.388310E-26
        -5.556062E-29   -5.086511E-33    3.801176E-37    3.536328E-40
  11    -2.189275E-43    5.558283E-44   -2.291991E-46   -4.886116E-41   -1.275862E-36   -1.118243E-32   -2.101378E-30    5.780371E-29   -9.109806E-29   -2.152962E-30
        -2.709310E-32   -4.331635E-35   -2.590339E-39    9.208766E-44
  12    -8.775253E-49    4.096902E-49   -5.863755E-47   -3.356445E-42   -1.080475E-37   -4.149794E-36   -6.464338E-34    4.430324E-33   -1.783278E-33   -5.071678E-34
        -7.828526E-36   -4.701364E-38   -2.807575E-41   -1.077198E-45
  13    -1.504555E-53   -1.501270E-52   -1.037518E-47   -5.901937E-43   -4.485810E-41   -7.647039E-39   -1.377177E-37    4.230906E-37   -3.244205E-38   -3.310958E-38
        -2.121603E-39   -1.536377E-41   -4.511458E-44   -2.092224E-47
  14     1.899488E-57    5.763194E-53    7.851489E-49   -5.169491E-47   -2.054164E-44   -1.261938E-42   -2.426019E-41    5.743730E-41   -2.221315E-43   -3.952842E-42
        -3.782550E-43   -8.236102E-45   -4.116574E-47   -9.698354E-50
  15    -7.532856E-58   -4.830701E-54    5.306078E-52    1.360761E-49    3.755370E-48   -1.535870E-46   -7.173524E-45    1.598291E-44    5.956065E-46   -1.170908E-45
        -1.514039E-46   -5.643059E-48   -6.873442E-50   -2.978003E-52
  16     8.132648E-59   -1.154533E-56   -2.442913E-54   -1.187925E-53    5.049440E-51    6.233836E-50   -4.505240E-48    9.675923E-48    7.988368E-49   -7.741177E-49
        -1.326702E-49   -7.284192E-51   -1.540770E-52   -1.482958E-54
  17     5.695594E-61    8.670455E-59   -1.525140E-57   -2.363595E-55    2.017230E-54    2.632130E-52   -5.242953E-51    1.074323E-50    1.499077E-51   -9.240517E-52
        -2.115315E-52   -1.615538E-53   -5.253464E-55   -9.262605E-57
  18    -1.182383E-62    3.060899E-61    2.874870E-59   -5.820771E-58   -3.130347E-56    1.056133E-54   -9.214721E-54    1.616747E-53    4.225564E-54   -1.377616E-54
        -5.176460E-55   -6.039162E-56   -3.221413E-57   -1.013286E-58

 CONCENTRATION WILL BE SAVED ON UNIT 1027 AT END OF TIME STEP    1, STRESS PERIOD   11


  MASS BUDGET FOR ENTIRE MODEL AT END OF TIME STEP    1, STRESS PERIOD  11
  ---------------------------------------------------------------------------------------------------

     CUMULATIVE MASS      M       RATES FOR THIS TIME STEP      M/T          PACKAGE NAME    
     ------------------                 ------------------------                     ----------------

           IN:                                      IN:
           ---                                      ---
     STORAGE-AQUEOUS =           0.3994       STORAGE-AQUEOUS =       6.3414E-04     MST                              
                 WEL =           5.7870                   WEL =           0.0000     SSM_WEL-1                        
                 CHD =           0.0000                   CHD =           0.0000     SSM_CHD-1                        

            TOTAL IN =           6.1864              TOTAL IN =       6.3414E-04

          OUT:                                     OUT:
          ----                                     ----
     STORAGE-AQUEOUS =           6.1864       STORAGE-AQUEOUS =       6.3414E-04     MST                              
                 WEL =       2.6676E-42                   WEL =           0.0000     SSM_WEL-1                        
                 CHD =           0.0000                   CHD =           0.0000     SSM_CHD-1                        

           TOTAL OUT =           6.1864             TOTAL OUT =       6.3414E-04

            IN - OUT =      -1.0449E-08              IN - OUT =      -8.5568E-12

 PERCENT DISCREPANCY =          -0.00     PERCENT DISCREPANCY =          -0.00




         TIME SUMMARY AT END OF TIME STEP    1 IN STRESS PERIOD   11
                    SECONDS     MINUTES      HOURS       DAYS        YEARS
                    -----------------------------------------------------------
   TIME STEP LENGTH  100.00      1.6667     2.77778E-02 1.15741E-03 3.16881E-06
 STRESS PERIOD TIME  100.00      1.6667     2.77778E-02 1.15741E-03 3.16881E-06
         TOTAL TIME  1100.0      18.333     0.30556     1.27315E-02 3.48569E-05


end timestep


start timestep kper="12" kstp="1" mode="normal"


 OUTPUT CONTROL FOR STRESS PERIOD 12 IS REPEATED USING SETTINGS FROM A PREVIOUS STRESS PERIOD.
 UBDSV1 SAVING     FLOW-JA-FACE ON UNIT   1026 AT TIME STEP      1, STRESS PERIOD     12
 UBDSV1 SAVING  STORAGE-AQUEOUS ON UNIT   1026 AT TIME STEP      1, STRESS PERIOD     12
 UBDSV06 SAVING  SOURCE-SINK MIX IN MODEL GWT-P09-MF6      PACKAGE GWT-P09-MF6     CONNECTED TO MODEL GWT-P09-MF6      PACKAGE SSM              ON UNIT   1026 AT TIME STEP      1, STRESS PERIOD     12

 SSM PACKAGE (SSM) FLOW RATES   PERIOD     12   STEP        1
 ------------------------------------------------------------------------------------------------
   NUMBER   CELLID                   BOUND Q        SSM CONC          RATE         PACKAGE NAME  
 ------------------------------------------------------------------------------------------------
     1      (1,4,7)               1.00000000E-03  0.0000000       0.0000000           WEL-1      
     2      (1,11,7)             -1.89000000E-02 -8.46185920E-30  0.0000000           WEL-1      
     1      (1,1,1)               0.15425012      0.0000000       0.0000000           CHD-1      
     2      (1,18,1)              7.78410399E-03  0.0000000       0.0000000           CHD-1      
     3      (1,1,2)               0.15422452      0.0000000       0.0000000           CHD-1      
     4      (1,18,2)              1.36405686E-02  0.0000000       0.0000000           CHD-1      
     5      (1,1,3)               0.15420499      0.0000000       0.0000000           CHD-1      
     6      (1,18,3)              1.53637068E-02  0.0000000       0.0000000           CHD-1      
     7      (1,1,4)               0.15419394      0.0000000       0.0000000           CHD-1      
     8      (1,18,4)              1.69567242E-02  0.0000000       0.0000000           CHD-1      
     9      (1,1,5)               0.15418496      0.0000000       0.0000000           CHD-1      
     10     (1,18,5)              1.85138034E-02  0.0000000       0.0000000           CHD-1      
     11     (1,1,6)               0.15417436      0.0000000       0.0000000           CHD-1      
     12     (1,18,6)              2.00614774E-02  0.0000000       0.0000000           CHD-1      
     13     (1,1,7)               0.15417037      0.0000000       0.0000000           CHD-1      
     14     (1,18,7)              2.16060495E-02  0.0000000       0.0000000           CHD-1      
     15     (1,1,8)               0.15420493      0.0000000       0.0000000           CHD-1      
     16     (1,18,8)              2.31485377E-02  0.0000000       0.0000000           CHD-1      
     17     (1,1,9)               0.15425180      0.0000000       0.0000000           CHD-1      
     18     (1,18,9)              2.46907903E-02  0.0000000       0.0000000           CHD-1      
     19     (1,1,10)              0.15427928      0.0000000       0.0000000           CHD-1      
     20     (1,18,10)             2.62357341E-02  0.0000000       0.0000000           CHD-1      
     21     (1,1,11)              0.15429068      0.0000000       0.0000000           CHD-1      
     22     (1,18,11)             2.77908818E-02  0.0000000       0.0000000           CHD-1      
     23     (1,1,12)              0.15429454      0.0000000       0.0000000           CHD-1      
     24     (1,18,12)             2.93828707E-02  0.0000000       0.0000000           CHD-1      
     25     (1,1,13)              0.15429569      0.0000000       0.0000000           CHD-1      
     26     (1,18,13)             3.11055615E-02  0.0000000       0.0000000           CHD-1      
     27     (1,1,14)              0.15429598      0.0000000       0.0000000           CHD-1      
     28     (1,18,14)             3.69618721E-02  0.0000000       0.0000000           CHD-1      
 ------------------------------------------------------------------------------------------------



1
  CONCENTRATION IN LAYER   1 AT END OF TIME STEP   1 IN STRESS PERIOD   12
  ---------------------------------------------------------------------------

                1               2               3               4               5               6               7               8               9              10
               11              12              13              14
 ................................................................................................................................................................
   1     9.756139E-20    1.838584E-17    3.216272E-15    5.023873E-13    6.616864E-11    6.564588E-09    3.689848E-07    6.906881E-09    7.035253E-11    5.221407E-13
         3.209132E-15    1.746406E-17    8.734585E-20    4.124252E-22
   2     5.121710E-19    1.248518E-16    2.865671E-14    5.967066E-12    1.063322E-09    1.441396E-07    1.112763E-05    1.589951E-07    1.219253E-09    6.705450E-12
         3.081103E-14    1.278272E-16    4.972434E-19    1.857502E-21
   3     9.997463E-19    4.014462E-16    1.522944E-13    5.230401E-11    1.523753E-08    3.308117E-06    3.956727E-04    4.000750E-06    2.044986E-08    6.885801E-11
         1.889422E-13    4.663743E-16    1.079978E-18    2.419726E-21
   4     6.899199E-19    4.976404E-16    3.811494E-13    2.772679E-10    1.680423E-07    7.256770E-05    1.595232E-02    7.907004E-05    2.292573E-07    4.050999E-10
         5.434920E-13    6.321171E-16    6.873665E-19    7.486428E-22
   5    -2.117886E-21    7.462806E-18    8.258389E-15    7.504581E-12    5.699429E-09    3.315674E-06    9.274080E-04    3.177000E-06    6.935580E-09    1.042379E-12
         6.271894E-15    1.302127E-17    1.664228E-20    1.834381E-23
   6    -4.013911E-22   -7.288558E-22   -3.382279E-20    1.610268E-16    1.715614E-13    1.278518E-10    4.344804E-08   -7.986898E-11   -4.434860E-11   -5.587604E-14
         3.006393E-17    8.100619E-20    1.076240E-22    1.183344E-25
   7    -7.978106E-25   -1.431127E-28   -4.132560E-28    2.420828E-24    2.710295E-21    1.434308E-18    8.446793E-16    1.617375E-16   -1.279900E-13   -7.941782E-17
         9.182796E-20    1.555177E-22    2.034423E-25    2.207941E-28
   8    -4.504420E-28   -3.455436E-35    5.093035E-35    1.631277E-32    1.704116E-29    2.008742E-27    2.171309E-24    1.851846E-22   -9.463138E-17   -8.058616E-20
         1.769138E-23    1.061816E-25    1.226472E-28    1.221110E-31
   9    -7.008243E-32    5.052688E-34    1.561001E-38    1.926882E-35    7.402621E-33    5.111064E-32    8.746331E-26    5.094627E-22   -2.677927E-20   -2.825652E-22
        -1.117390E-25    2.647591E-29    4.278271E-32    2.657128E-35
  10    -1.943579E-36    2.972328E-38   -9.858777E-41    1.841967E-38   -6.690454E-36   -4.353423E-32   -4.570914E-27    4.515764E-25   -4.175733E-24   -1.097632E-25
        -2.646832E-28   -3.097922E-32    3.940823E-36    3.969383E-39
  11    -3.666145E-42    8.428519E-43   -1.261319E-44   -2.387833E-40   -5.588668E-36   -4.625727E-32   -8.461859E-30    2.646623E-28   -4.539966E-28   -1.231500E-29
        -1.698710E-31   -2.882814E-34   -2.079039E-38    1.291374E-42
  12    -1.909400E-47    8.256069E-48   -4.213280E-46   -1.966271E-41   -5.193841E-37   -2.230594E-35   -3.272280E-33    2.281683E-32   -1.023389E-32   -3.188691E-33
        -5.610247E-35   -3.680303E-37   -2.427600E-40   -1.155776E-44
  13    -4.064523E-52   -1.159973E-51   -7.285412E-47   -3.288607E-42   -2.721976E-40   -4.286102E-38   -7.832839E-37    2.526593E-36   -2.780904E-37   -2.464123E-37
        -1.668955E-38   -1.406806E-40   -4.545839E-43   -2.336915E-46
  14     3.142167E-58    4.716411E-52    5.344536E-48   -3.135333E-46   -1.238883E-43   -7.898529E-42   -1.590581E-40    4.014854E-40   -1.313447E-41   -3.528171E-41
        -3.513564E-42   -8.195865E-44   -4.633486E-46   -1.188421E-48
  15    -6.829553E-57   -3.791582E-53    3.866524E-51    9.615100E-49    2.989302E-47   -9.817893E-46   -5.339884E-44    1.262307E-43    1.270878E-45   -1.188851E-44
        -1.581558E-45   -6.196127E-47   -8.041529E-49   -3.868609E-51
  16     7.013330E-58   -9.405037E-56   -1.922699E-53   -1.838800E-52    3.878652E-50    6.346580E-49   -3.618862E-47    8.184208E-47    4.614651E-48   -8.491842E-48
        -1.479953E-48   -8.468394E-50   -1.876854E-51   -1.919749E-53
  17     4.923135E-60    7.252809E-58   -8.193348E-57   -2.019470E-54    7.822052E-54    2.367377E-51   -4.337525E-50    9.285656E-50    1.065273E-50   -1.051414E-50
        -2.411648E-51   -1.908977E-52   -6.461531E-54   -1.193025E-55
  18    -1.020971E-61    2.056318E-60    2.595637E-58   -3.821220E-57   -3.038595E-55    9.148155E-54   -7.660945E-53    1.388761E-52    3.331712E-53   -1.635011E-53
        -5.888741E-54   -7.057535E-55   -3.902713E-56   -1.278897E-57

 CONCENTRATION WILL BE SAVED ON UNIT 1027 AT END OF TIME STEP    1, STRESS PERIOD   12


  MASS BUDGET FOR ENTIRE MODEL AT END OF TIME STEP    1, STRESS PERIOD  12
  ---------------------------------------------------------------------------------------------------

     CUMULATIVE MASS      M       RATES FOR THIS TIME STEP      M/T          PACKAGE NAME    
     ------------------                 ------------------------                     ----------------

           IN:                                      IN:
           ---                                      ---
     STORAGE-AQUEOUS =           0.4650       STORAGE-AQUEOUS =       6.5577E-04     MST                              
                 WEL =           5.7870                   WEL =           0.0000     SSM_WEL-1                        
                 CHD =           0.0000                   CHD =           0.0000     SSM_CHD-1                        

            TOTAL IN =           6.2520              TOTAL IN =       6.5577E-04

          OUT:                                     OUT:
          ----                                     ----
     STORAGE-AQUEOUS =           6.2520       STORAGE-AQUEOUS =       6.5577E-04     MST                              
                 WEL =       2.6676E-42                   WEL =           0.0000     SSM_WEL-1                        
                 CHD =           0.0000                   CHD =           0.0000     SSM_CHD-1                        

           TOTAL OUT =           6.2520             TOTAL OUT =       6.5577E-04

            IN - OUT =      -1.1079E-08              IN - OUT =      -6.3036E-12

 PERCENT DISCREPANCY =          -0.00     PERCENT DISCREPANCY =          -0.00




         TIME SUMMARY AT END OF TIME STEP    1 IN STRESS PERIOD   12
                    SECONDS     MINUTES      HOURS       DAYS        YEARS
                    -----------------------------------------------------------
   TIME STEP LENGTH  100.00      1.6667     2.77778E-02 1.15741E-03 3.16881E-06
 STRESS PERIOD TIME  100.00      1.6667     2.77778E-02 1.15741E-03 3.16881E-06
         TOTAL TIME  1200.0      20.000     0.33333     1.38889E-02 3.80257E-05


end timestep


start timestep kper="13" kstp="1" mode="normal"


 OUTPUT CONTROL FOR STRESS PERIOD 13 IS REPEATED USING SETTINGS FROM A PREVIOUS STRESS PERIOD.
 UBDSV1 SAVING     FLOW-JA-FACE ON UNIT   1026 AT TIME STEP      1, STRESS PERIOD     13
 UBDSV1 SAVING  STORAGE-AQUEOUS ON UNIT   1026 AT TIME STEP      1, STRESS PERIOD     13
 UBDSV06 SAVING  SOURCE-SINK MIX IN MODEL GWT-P09-MF6      PACKAGE GWT-P09-MF6     CONNECTED TO MODEL GWT-P09-MF6      PACKAGE SSM              ON UNIT   1026 AT TIME STEP      1, STRESS PERIOD     13

 SSM PACKAGE (SSM) FLOW RATES   PERIOD     13   STEP        1
 ------------------------------------------------------------------------------------------------
   NUMBER   CELLID                   BOUND Q        SSM CONC          RATE         PACKAGE NAME  
 ------------------------------------------------------------------------------------------------
     1      (1,4,7)               1.00000000E-03  0.0000000       0.0000000           WEL-1      
     2      (1,11,7)             -1.89000000E-02 -2.93303745E-29  0.0000000           WEL-1      
     1      (1,1,1)               0.14846015      0.0000000       0.0000000           CHD-1      
     2      (1,18,1)              7.26347761E-03  0.0000000       0.0000000           CHD-1      
     3      (1,1,2)               0.14842612      0.0000000       0.0000000           CHD-1      
     4      (1,18,2)              1.30955493E-02  0.0000000       0.0000000           CHD-1      
     5      (1,1,3)               0.14839944      0.0000000       0.0000000           CHD-1      
     6      (1,18,3)              1.47770207E-02  0.0000000       0.0000000           CHD-1      
     7      (1,1,4)               0.14838448      0.0000000       0.0000000           CHD-1      
     8      (1,18,4)              1.63190750E-02  0.0000000       0.0000000           CHD-1      
     9      (1,1,5)               0.14837376      0.0000000       0.0000000           CHD-1      
     10     (1,18,5)              1.78211524E-02  0.0000000       0.0000000           CHD-1      
     11     (1,1,6)               0.14836325      0.0000000       0.0000000           CHD-1      
     12     (1,18,6)              1.93122723E-02  0.0000000       0.0000000           CHD-1      
     13     (1,1,7)               0.14836264      0.0000000       0.0000000           CHD-1      
     14     (1,18,7)              2.07995598E-02  0.0000000       0.0000000           CHD-1      
     15     (1,1,8)               0.14840607      0.0000000       0.0000000           CHD-1      
     16     (1,18,8)              2.22842736E-02  0.0000000       0.0000000           CHD-1      
     17     (1,1,9)               0.14846599      0.0000000       0.0000000           CHD-1      
     18     (1,18,9)              2.37686517E-02  0.0000000       0.0000000           CHD-1      
     19     (1,1,10)              0.14850226      0.0000000       0.0000000           CHD-1      
     20     (1,18,10)             2.52562581E-02  0.0000000       0.0000000           CHD-1      
     21     (1,1,11)              0.14851780      0.0000000       0.0000000           CHD-1      
     22     (1,18,11)             2.67557718E-02  0.0000000       0.0000000           CHD-1      
     23     (1,1,12)              0.14852325      0.0000000       0.0000000           CHD-1      
     24     (1,18,12)             2.82964146E-02  0.0000000       0.0000000           CHD-1      
     25     (1,1,13)              0.14852491      0.0000000       0.0000000           CHD-1      
     26     (1,18,13)             2.99772511E-02  0.0000000       0.0000000           CHD-1      
     27     (1,1,14)              0.14852535      0.0000000       0.0000000           CHD-1      
     28     (1,18,14)             3.58090980E-02  0.0000000       0.0000000           CHD-1      
 ------------------------------------------------------------------------------------------------



1
  CONCENTRATION IN LAYER   1 AT END OF TIME STEP   1 IN STRESS PERIOD   13
  ---------------------------------------------------------------------------

                1               2               3               4               5               6               7               8               9              10
               11              12              13              14
 ................................................................................................................................................................
   1     1.511007E-19    2.778582E-17    4.726708E-15    7.147613E-13    9.066507E-11    8.614377E-09    4.617589E-07    9.133288E-09    9.780036E-11    7.572213E-13
         4.824252E-15    2.708354E-17    1.392193E-19    6.736441E-22
   2     8.181622E-19    1.923291E-16    4.239764E-14    8.432345E-12    1.426015E-09    1.822558E-07    1.324142E-05    2.039753E-07    1.677288E-09    9.756106E-12
         4.688653E-14    2.020159E-16    8.122595E-19    3.125648E-21
   3     1.785377E-18    6.646972E-16    2.333976E-13    7.401028E-11    1.982462E-08    3.941930E-06    4.350716E-04    4.881443E-06    2.774828E-08    1.020254E-10
         3.007265E-13    7.913610E-16    1.945078E-18    4.602646E-21
   4     1.473474E-18    9.236392E-16    6.182462E-13    3.959540E-10    2.113251E-07    8.019041E-05    1.553884E-02    8.911957E-05    3.039966E-07    6.168811E-10
         9.320039E-13    1.207702E-15    1.450353E-18    1.720806E-21
   5    -1.576151E-21    1.677104E-17    1.579884E-14    1.266407E-11    8.517496E-09    4.373248E-06    1.071405E-03    4.354070E-06    1.289774E-08    5.767099E-12
         1.434390E-14    2.948002E-17    4.111347E-20    4.943763E-23
   6    -1.169251E-21   -1.939088E-21   -1.045375E-19    3.361784E-16    3.289151E-13    2.181460E-10    6.418298E-08   -1.199243E-10   -5.707732E-11   -1.024173E-13
         7.023640E-17    2.172519E-19    3.200257E-22    3.846658E-25
   7    -2.926744E-24   -5.894304E-28   -1.748677E-27    6.830807E-24    7.043755E-21    3.437205E-18    1.695062E-15    3.398712E-16   -2.305475E-13   -2.128439E-16
         2.606164E-19    5.226643E-22    7.572051E-25    8.977640E-28
   8    -2.168663E-27   -4.435263E-34    2.029865E-34    5.717848E-32    5.457764E-29    6.519681E-27    5.828222E-24    4.208619E-22   -2.345544E-16   -2.414285E-19
         8.160236E-23    4.491221E-25    5.892292E-28    6.450763E-31
   9    -4.617459E-31    3.392699E-33    1.167302E-37    6.968761E-35    2.693236E-32    1.506095E-31    3.060101E-25    1.568617E-21   -8.848371E-20   -9.111097E-22
        -4.289555E-25    1.532441E-28    2.523736E-31    1.835957E-34
  10    -1.809982E-35    2.696526E-37   -8.147159E-40    7.344636E-38   -1.673459E-35    4.576670E-33   -1.509712E-26    1.622982E-24   -1.647187E-23   -4.278319E-25
        -1.077909E-27   -1.609374E-31    3.396409E-35    3.559973E-38
  11    -4.774475E-41    1.002209E-41   -2.077889E-43   -9.859410E-40   -2.086382E-35   -1.642150E-31   -2.933037E-29    1.035566E-27   -1.909341E-27   -5.952055E-29
        -8.826743E-31   -1.579652E-33   -1.381189E-37    1.457556E-41
  12    -3.141667E-46    1.272674E-46   -2.474997E-45   -9.670970E-41   -2.136289E-36   -1.015604E-34   -1.414625E-32    1.004898E-31   -4.912282E-32   -1.664162E-32
        -3.323916E-34   -2.348742E-36   -1.694434E-39   -9.989308E-44
  13    -8.131687E-51   -5.753844E-51   -4.210646E-46   -1.544068E-41   -1.384312E-39   -2.034201E-37   -3.788907E-36    1.280302E-35   -1.820086E-36   -1.508614E-36
        -1.075285E-37   -1.043070E-39   -3.658256E-42   -2.065051E-45
  14    -3.920079E-55    3.155706E-51    3.022261E-47   -1.535711E-45   -6.226709E-43   -4.144772E-41   -8.792631E-40    2.352107E-39   -1.431506E-40   -2.543394E-40
        -2.634915E-41   -6.565587E-43   -4.149737E-45   -1.145164E-47
  15    -5.049487E-56   -2.443737E-52    2.280477E-50    5.610729E-48    1.958369E-46   -5.065342E-45   -3.316642E-43    8.265692E-43   -1.350511E-44   -9.614490E-44
        -1.319520E-44   -5.424842E-46   -7.479485E-48   -3.950673E-50
  16     4.932992E-57   -6.193216E-55   -1.242929E-52   -1.799773E-51    2.433299E-49    5.118944E-48   -2.411999E-46    5.708213E-46    1.779346E-47   -7.349915E-47
        -1.310792E-47   -7.809560E-49   -1.810289E-50   -1.960946E-52
  17     3.444466E-59    4.980644E-57   -2.406366E-56   -1.406296E-53   -1.223742E-53    1.751083E-50   -2.976984E-49    6.618497E-49    6.025096E-50   -9.381789E-50
        -2.180806E-50   -1.788993E-51   -6.294141E-53   -1.214385E-54
  18    -7.254814E-61    1.039138E-59    1.909511E-57   -1.809641E-56   -2.407632E-54    6.569697E-53   -5.300753E-52    9.874867E-52    2.171493E-52   -1.496819E-52
        -5.318488E-53   -6.562049E-54   -3.758584E-55   -1.280881E-56

 CONCENTRATION WILL BE SAVED ON UNIT 1027 AT END OF TIME STEP    1, STRESS PERIOD   13


  MASS BUDGET FOR ENTIRE MODEL AT END OF TIME STEP    1, STRESS PERIOD  13
  ---------------------------------------------------------------------------------------------------

     CUMULATIVE MASS      M       RATES FOR THIS TIME STEP      M/T          PACKAGE NAME    
     ------------------                 ------------------------                     ----------------

           IN:                                      IN:
           ---                                      ---
     STORAGE-AQUEOUS =           0.5320       STORAGE-AQUEOUS =       6.6996E-04     MST                              
                 WEL =           5.7870                   WEL =           0.0000     SSM_WEL-1                        
                 CHD =           0.0000                   CHD =           0.0000     SSM_CHD-1                        

            TOTAL IN =           6.3190              TOTAL IN =       6.6996E-04

          OUT:                                     OUT:
          ----                                     ----
     STORAGE-AQUEOUS =           6.3190       STORAGE-AQUEOUS =       6.6996E-04     MST                              
                 WEL =       2.6676E-42                   WEL =           0.0000     SSM_WEL-1                        
                 CHD =           0.0000                   CHD =           0.0000     SSM_CHD-1                        

           TOTAL OUT =           6.3190             TOTAL OUT =       6.6996E-04

            IN - OUT =      -1.1465E-08              IN - OUT =      -3.8568E-12

 PERCENT DISCREPANCY =          -0.00     PERCENT DISCREPANCY =          -0.00




         TIME SUMMARY AT END OF TIME STEP    1 IN STRESS PERIOD   13
                    SECONDS     MINUTES      HOURS       DAYS        YEARS
                    -----------------------------------------------------------
   TIME STEP LENGTH  100.00      1.6667     2.77778E-02 1.15741E-03 3.16881E-06
 STRESS PERIOD TIME  100.00      1.6667     2.77778E-02 1.15741E-03 3.16881E-06
         TOTAL TIME  1300.0      21.667     0.36111     1.50463E-02 4.11945E-05


end timestep


start timestep kper="14" kstp="1" mode="normal"


 OUTPUT CONTROL FOR STRESS PERIOD 14 IS REPEATED USING SETTINGS FROM A PREVIOUS STRESS PERIOD.
 UBDSV1 SAVING     FLOW-JA-FACE ON UNIT   1026 AT TIME STEP      1, STRESS PERIOD     14
 UBDSV1 SAVING  STORAGE-AQUEOUS ON UNIT   1026 AT TIME STEP      1, STRESS PERIOD     14
 UBDSV06 SAVING  SOURCE-SINK MIX IN MODEL GWT-P09-MF6      PACKAGE GWT-P09-MF6     CONNECTED TO MODEL GWT-P09-MF6      PACKAGE SSM              ON UNIT   1026 AT TIME STEP      1, STRESS PERIOD     14

 SSM PACKAGE (SSM) FLOW RATES   PERIOD     14   STEP        1
 ------------------------------------------------------------------------------------------------
   NUMBER   CELLID                   BOUND Q        SSM CONC          RATE         PACKAGE NAME  
 ------------------------------------------------------------------------------------------------
     1      (1,4,7)               1.00000000E-03  0.0000000       0.0000000           WEL-1      
     2      (1,11,7)             -1.89000000E-02 -8.83207545E-29  0.0000000           WEL-1      
     1      (1,1,1)               0.14324478      0.0000000       0.0000000           CHD-1      
     2      (1,18,1)              6.79215794E-03  0.0000000       0.0000000           CHD-1      
     3      (1,1,2)               0.14320076      0.0000000       0.0000000           CHD-1      
     4      (1,18,2)              1.26031271E-02  0.0000000       0.0000000           CHD-1      
     5      (1,1,3)               0.14316535      0.0000000       0.0000000           CHD-1      
     6      (1,18,3)              1.42481290E-02  0.0000000       0.0000000           CHD-1      
     7      (1,1,4)               0.14314555      0.0000000       0.0000000           CHD-1      
     8      (1,18,4)              1.57450947E-02  0.0000000       0.0000000           CHD-1      
     9      (1,1,5)               0.14313286      0.0000000       0.0000000           CHD-1      
     10     (1,18,5)              1.71981525E-02  0.0000000       0.0000000           CHD-1      
     11     (1,1,6)               0.14312286      0.0000000       0.0000000           CHD-1      
     12     (1,18,6)              1.86386462E-02  0.0000000       0.0000000           CHD-1      
     13     (1,1,7)               0.14312679      0.0000000       0.0000000           CHD-1      
     14     (1,18,7)              2.00745052E-02  0.0000000       0.0000000           CHD-1      
     15     (1,1,8)               0.14318106      0.0000000       0.0000000           CHD-1      
     16     (1,18,8)              2.15072522E-02  0.0000000       0.0000000           CHD-1      
     17     (1,1,9)               0.14325654      0.0000000       0.0000000           CHD-1      
     18     (1,18,9)              2.29395442E-02  0.0000000       0.0000000           CHD-1      
     19     (1,1,10)              0.14330348      0.0000000       0.0000000           CHD-1      
     20     (1,18,10)             2.43756296E-02  0.0000000       0.0000000           CHD-1      
     21     (1,1,11)              0.14332421      0.0000000       0.0000000           CHD-1      
     22     (1,18,11)             2.58253777E-02  0.0000000       0.0000000           CHD-1      
     23     (1,1,12)              0.14333171      0.0000000       0.0000000           CHD-1      
     24     (1,18,12)             2.73204640E-02  0.0000000       0.0000000           CHD-1      
     25     (1,1,13)              0.14333407      0.0000000       0.0000000           CHD-1      
     26     (1,18,13)             2.89645938E-02  0.0000000       0.0000000           CHD-1      
     27     (1,1,14)              0.14333471      0.0000000       0.0000000           CHD-1      
     28     (1,18,14)             3.47752458E-02  0.0000000       0.0000000           CHD-1      
 ------------------------------------------------------------------------------------------------



1
  CONCENTRATION IN LAYER   1 AT END OF TIME STEP   1 IN STRESS PERIOD   14
  ---------------------------------------------------------------------------

                1               2               3               4               5               6               7               8               9              10
               11              12              13              14
 ................................................................................................................................................................
   1     2.273735E-19    4.081029E-17    6.754708E-15    9.896471E-13    1.210489E-10    1.103445E-08    5.653887E-07    1.179664E-08    1.325625E-10    1.068707E-12
         7.044550E-15    4.072929E-17    2.148659E-19    1.064149E-21
   2     1.266719E-18    2.873203E-16    6.089213E-14    1.158483E-11    1.863428E-09    2.252747E-07    1.546143E-05    2.560680E-07    2.252317E-09    1.382269E-11
         6.930298E-14    3.093733E-16    1.283134E-18    5.077466E-21
   3     3.055831E-18    1.058041E-15    3.452374E-13    1.015534E-10    2.515034E-08    4.610327E-06    4.724918E-04    5.853423E-06    3.680388E-08    1.470649E-10
         4.631703E-13    1.291993E-15    3.352470E-18    8.340735E-21
   4     2.961126E-18    1.625789E-15    9.585444E-13    5.454001E-10    2.590667E-07    8.742036E-05    1.512841E-02    9.933266E-05    3.943136E-07    9.100127E-10
         1.532914E-12    2.191173E-15    2.880249E-18    3.699090E-21
   5     5.922607E-21    3.527700E-17    2.846648E-14    2.028212E-11    1.220748E-08    5.599954E-06    1.217329E-03    5.802451E-06    2.237737E-08    1.668540E-11
         3.115690E-14    6.293610E-17    9.451100E-20    1.229963E-22
   6    -3.099739E-21   -4.727768E-21   -2.808975E-19    6.531741E-16    5.922602E-13    3.538482E-10    9.146531E-08   -1.719464E-10   -5.623328E-11   -1.646608E-13
         1.572819E-16    5.389262E-19    8.706703E-22    1.135883E-24
   7    -9.587858E-24   -2.100436E-27   -6.256868E-27    1.756974E-23    1.682400E-20    7.605560E-18    3.210284E-15    6.704781E-16   -3.493262E-13   -4.977496E-16
         6.764719E-19    1.590723E-21    2.528821E-24    3.253532E-27
   8    -9.123839E-27   -3.387386E-33    7.172423E-34    1.802904E-31    1.585868E-28    1.895064E-26    1.464061E-23    7.878445E-22   -4.948896E-16   -6.537088E-19
         3.316822E-22    1.694221E-24    2.487865E-27    2.971898E-30
   9    -2.594548E-30    1.940582E-32    7.982294E-37    2.248695E-34    8.661284E-32   -2.680593E-31    9.227608E-25    4.135025E-21   -2.486514E-19   -2.528333E-21
        -1.446225E-24    7.702588E-28    1.297805E-30    1.084608E-33
  10    -1.399767E-34    2.038923E-36   -5.429462E-39    2.539882E-37   -2.793733E-35    5.394828E-31   -4.307558E-26    5.004709E-24   -5.550220E-23   -1.426669E-24
        -3.786395E-27   -7.182106E-31    2.469413E-34    2.644354E-37
  11    -5.006131E-40    9.665070E-41   -2.303829E-42   -3.492575E-39   -6.717539E-35   -5.051355E-31   -8.832075E-29    3.498969E-27   -6.857752E-27   -2.454526E-28
        -3.849815E-30   -7.241205E-33   -7.707715E-37    1.352511E-40
  12    -4.062496E-45    1.557298E-45   -1.222610E-44   -4.061717E-40   -7.610143E-36   -3.964475E-34   -5.288744E-32    3.830570E-31   -2.006358E-31   -7.325757E-32
        -1.653801E-33   -1.243401E-35   -9.743824E-39   -7.094290E-43
  13    -1.256248E-49   -8.451091E-52   -2.047403E-45   -6.210318E-41   -5.992362E-39   -8.302328E-37   -1.581946E-35    5.586024E-35   -9.631943E-36   -7.743519E-36
        -5.787038E-37   -6.388793E-39   -2.403002E-41   -1.479356E-44
  14    -9.155918E-54    1.766908E-50    1.448081E-46   -6.144923E-45   -2.655008E-42   -1.856114E-40   -4.168707E-39    1.175380E-38   -1.030435E-39   -1.516524E-39
        -1.632386E-40   -4.332130E-42   -3.027744E-44   -8.899743E-47
  15    -3.125704E-55   -1.322908E-51    1.111625E-49    2.761105E-47    1.078170E-45   -2.126771E-44   -1.753039E-42    4.579436E-42   -1.892542E-43   -6.368273E-43
        -9.023402E-44   -3.885592E-45   -5.673169E-47   -3.256625E-49
  16     2.900320E-56   -3.377162E-54   -6.753576E-52   -1.323480E-50    1.273075E-48    3.385869E-47   -1.362880E-45    3.356302E-45    2.530651E-47   -5.179607E-46
        -9.480285E-47   -5.872981E-48   -1.421092E-49   -1.624345E-51
  17     2.000862E-58    2.876495E-56    5.058896E-56   -8.170080E-53   -4.764588E-52    1.090091E-49   -1.733102E-48    3.980240E-48    2.749858E-49   -6.798192E-49
        -1.610891E-49   -1.368364E-50   -4.996053E-52   -1.005071E-53
  18    -4.347351E-60    3.688793E-59    1.172981E-56   -5.096422E-56   -1.597070E-53    4.000820E-52   -3.120814E-51    5.946517E-51    1.200863E-51   -1.104977E-51
        -3.932541E-52   -4.997942E-53   -2.961470E-54   -1.047619E-55

 CONCENTRATION WILL BE SAVED ON UNIT 1027 AT END OF TIME STEP    1, STRESS PERIOD   14


  MASS BUDGET FOR ENTIRE MODEL AT END OF TIME STEP    1, STRESS PERIOD  14
  ---------------------------------------------------------------------------------------------------

     CUMULATIVE MASS      M       RATES FOR THIS TIME STEP      M/T          PACKAGE NAME    
     ------------------                 ------------------------                     ----------------

           IN:                                      IN:
           ---                                      ---
     STORAGE-AQUEOUS =           0.5998       STORAGE-AQUEOUS =       6.7764E-04     MST                              
                 WEL =           5.7870                   WEL =           0.0000     SSM_WEL-1                        
                 CHD =           0.0000                   CHD =           0.0000     SSM_CHD-1                        

            TOTAL IN =           6.3868              TOTAL IN =       6.7764E-04

          OUT:                                     OUT:
          ----                                     ----
     STORAGE-AQUEOUS =           6.3868       STORAGE-AQUEOUS =       6.7764E-04     MST                              
                 WEL =       2.6676E-42                   WEL =           0.0000     SSM_WEL-1                        
                 CHD =           0.0000                   CHD =           0.0000     SSM_CHD-1                        

           TOTAL OUT =           6.3868             TOTAL OUT =       6.7764E-04

            IN - OUT =      -1.1579E-08              IN - OUT =      -1.1384E-12

 PERCENT DISCREPANCY =          -0.00     PERCENT DISCREPANCY =          -0.00




         TIME SUMMARY AT END OF TIME STEP    1 IN STRESS PERIOD   14
                    SECONDS     MINUTES      HOURS       DAYS        YEARS
                    -----------------------------------------------------------
   TIME STEP LENGTH  100.00      1.6667     2.77778E-02 1.15741E-03 3.16881E-06
 STRESS PERIOD TIME  100.00      1.6667     2.77778E-02 1.15741E-03 3.16881E-06
         TOTAL TIME  1400.0      23.333     0.38889     1.62037E-02 4.43633E-05


end timestep


start timestep kper="15" kstp="1" mode="normal"


 OUTPUT CONTROL FOR STRESS PERIOD 15 IS REPEATED USING SETTINGS FROM A PREVIOUS STRESS PERIOD.
 UBDSV1 SAVING     FLOW-JA-FACE ON UNIT   1026 AT TIME STEP      1, STRESS PERIOD     15
 UBDSV1 SAVING  STORAGE-AQUEOUS ON UNIT   1026 AT TIME STEP      1, STRESS PERIOD     15
 UBDSV06 SAVING  SOURCE-SINK MIX IN MODEL GWT-P09-MF6      PACKAGE GWT-P09-MF6     CONNECTED TO MODEL GWT-P09-MF6      PACKAGE SSM              ON UNIT   1026 AT TIME STEP      1, STRESS PERIOD     15

 SSM PACKAGE (SSM) FLOW RATES   PERIOD     15   STEP        1
 ------------------------------------------------------------------------------------------------
   NUMBER   CELLID                   BOUND Q        SSM CONC          RATE         PACKAGE NAME  
 ------------------------------------------------------------------------------------------------
     1      (1,4,7)               1.00000000E-03  0.0000000       0.0000000           WEL-1      
     2      (1,11,7)             -1.89000000E-02 -2.30786564E-28  0.0000000           WEL-1      
     1      (1,1,1)               0.13851623      0.0000000       0.0000000           CHD-1      
     2      (1,18,1)              6.36295828E-03  0.0000000       0.0000000           CHD-1      
     3      (1,1,2)               0.13846061      0.0000000       0.0000000           CHD-1      
     4      (1,18,2)              1.21555216E-02  0.0000000       0.0000000           CHD-1      
     5      (1,1,3)               0.13841476      0.0000000       0.0000000           CHD-1      
     6      (1,18,3)              1.37683910E-02  0.0000000       0.0000000           CHD-1      
     7      (1,1,4)               0.13838911      0.0000000       0.0000000           CHD-1      
     8      (1,18,4)              1.52252385E-02  0.0000000       0.0000000           CHD-1      
     9      (1,1,5)               0.13837419      0.0000000       0.0000000           CHD-1      
     10     (1,18,5)              1.66343698E-02  0.0000000       0.0000000           CHD-1      
     11     (1,1,6)               0.13836517      0.0000000       0.0000000           CHD-1      
     12     (1,18,6)              1.80292884E-02  0.0000000       0.0000000           CHD-1      
     13     (1,1,7)               0.13837494      0.0000000       0.0000000           CHD-1      
     14     (1,18,7)              1.94187042E-02  0.0000000       0.0000000           CHD-1      
     15     (1,1,8)               0.13844220      0.0000000       0.0000000           CHD-1      
     16     (1,18,8)              2.08044247E-02  0.0000000       0.0000000           CHD-1      
     17     (1,1,9)               0.13853595      0.0000000       0.0000000           CHD-1      
     18     (1,18,9)              2.21895525E-02  0.0000000       0.0000000           CHD-1      
     19     (1,1,10)              0.13859564      0.0000000       0.0000000           CHD-1      
     20     (1,18,10)             2.35790594E-02  0.0000000       0.0000000           CHD-1      
     21     (1,1,11)              0.13862273      0.0000000       0.0000000           CHD-1      
     22     (1,18,11)             2.49840198E-02  0.0000000       0.0000000           CHD-1      
     23     (1,1,12)              0.13863281      0.0000000       0.0000000           CHD-1      
     24     (1,18,12)             2.64384296E-02  0.0000000       0.0000000           CHD-1      
     25     (1,1,13)              0.13863609      0.0000000       0.0000000           CHD-1      
     26     (1,18,13)             2.80501347E-02  0.0000000       0.0000000           CHD-1      
     27     (1,1,14)              0.13863699      0.0000000       0.0000000           CHD-1      
     28     (1,18,14)             3.38422642E-02  0.0000000       0.0000000           CHD-1      
 ------------------------------------------------------------------------------------------------



1
  CONCENTRATION IN LAYER   1 AT END OF TIME STEP   1 IN STRESS PERIOD   15
  ---------------------------------------------------------------------------

                1               2               3               4               5               6               7               8               9              10
               11              12              13              14
 ................................................................................................................................................................
   1     3.336017E-19    5.845657E-17    9.418592E-15    1.338012E-12    1.579955E-10    1.384138E-08    6.794437E-07    1.493006E-08    1.758015E-10    1.473449E-12
         1.003261E-14    5.964764E-17    3.225185E-19    1.633117E-21
   2     1.908572E-18    4.178763E-16    8.521105E-14    1.552783E-11    2.380467E-09    2.730270E-07    1.776508E-05    3.155129E-07    2.962241E-09    1.914409E-11
         9.991568E-14    4.611391E-16    1.969192E-18    8.000147E-21
   3     5.044045E-18    1.628029E-15    4.952394E-13    1.356634E-10    3.121198E-08    5.306853E-06    5.077699E-04    6.913921E-06    4.786067E-08    2.070422E-10
         6.936599E-13    2.041081E-15    5.564959E-18    1.449848E-20
   4     5.647525E-18    2.735018E-15    1.429933E-12    7.283562E-10    3.106911E-07    9.418887E-05    1.472353E-02    1.096863E-04    5.019303E-07    1.306692E-09
         2.433618E-12    3.804667E-15    5.431306E-18    7.506200E-21
   5     3.542328E-20    7.013998E-17    4.875541E-14    3.107121E-11    1.689184E-08    6.991962E-06    1.363605E-03    7.551530E-06    3.676512E-08    3.889761E-11
         6.465646E-14    1.279744E-16    2.044156E-19    2.857033E-22
   6    -7.575335E-21   -1.069392E-20   -6.773033E-19    1.193061E-15    1.011343E-12    5.497516E-10    1.263625E-07   -2.361891E-10   -2.052125E-11   -2.225397E-13
         3.425409E-16    1.252135E-18    2.195842E-21    3.087927E-24
   7    -2.848290E-23   -6.644539E-27   -1.965767E-26    4.171919E-23    3.738648E-20    1.573254E-17    5.781896E-15    1.252310E-15   -3.986923E-13   -1.017407E-15
         1.632818E-18    4.448497E-21    7.695866E-24    1.067596E-26
   8    -3.415737E-26   -1.991698E-32    2.281658E-33    5.188646E-31    4.241039E-28    5.025793E-26    3.457381E-23    1.106308E-21   -8.526559E-16   -1.592633E-18
         1.201080E-21    5.792482E-24    9.398696E-27    1.216337E-29
   9    -1.270015E-29    9.657982E-32    4.885869E-36    6.581548E-34    2.514016E-31   -5.318468E-30    2.382280E-24    9.157467E-21   -5.830248E-19   -5.961447E-21
        -4.273952E-24    3.416104E-27    5.923607E-30    5.593632E-33
  10    -9.213404E-34    1.316545E-35   -3.019929E-38    7.787365E-37   -1.062228E-35    2.995156E-30   -1.053563E-25    1.314442E-23   -1.584929E-22   -4.046855E-24
        -1.142857E-26   -2.747211E-30    1.540181E-33    1.675175E-36
  11    -4.346188E-39    7.765873E-40   -1.990263E-41   -1.070058E-38   -1.870883E-34   -1.345374E-30   -2.307866E-28    1.020289E-26   -2.104169E-26   -8.614433E-28
        -1.410618E-29   -2.791452E-32   -3.630589E-36    1.053803E-39
  12    -4.258821E-44    1.558735E-44   -5.210363E-44   -1.472297E-39   -2.356381E-35   -1.331655E-33   -1.716100E-31    1.267533E-30   -7.018685E-31   -2.736549E-31
        -6.940535E-33   -5.496018E-35   -4.664103E-38   -4.181563E-42
  13    -1.549938E-48    3.642753E-49   -8.501310E-45   -2.158308E-40   -2.225482E-38   -2.935821E-36   -5.740195E-35    2.112131E-34   -4.234059E-35   -3.364387E-35
        -2.627752E-36   -3.263227E-38   -1.303231E-40   -8.717278E-44
  14    -1.383090E-52    8.414211E-50    5.951176E-46   -2.006140E-44   -9.702425E-42   -7.167280E-40   -1.711654E-38    5.059709E-38   -5.699485E-39   -7.586018E-39
        -8.469493E-40   -2.385745E-41   -1.824005E-43   -5.663625E-46
  15    -1.656185E-54   -6.106970E-51    4.538363E-49    1.161510E-46    5.057774E-45   -7.201091E-44   -7.984240E-42    2.174296E-41   -1.400636E-42   -3.516848E-42
        -5.142639E-43   -2.314304E-44   -3.565245E-46   -2.202950E-48
  16     1.449981E-55   -1.551318E-53   -3.133367E-51   -7.803478E-50    5.630360E-48    1.878111E-46   -6.623101E-45    1.688378E-44   -2.372597E-46   -3.034328E-45
        -5.705645E-46   -3.668855E-47   -9.246006E-49   -1.110855E-50
  17     9.831713E-58    1.421031E-55    1.197598E-54   -4.025920E-52   -4.487680E-51    5.804332E-49   -8.690719E-48    2.051728E-47    1.011869E-48   -4.094395E-48
        -9.918889E-49   -8.712986E-50   -3.295289E-51   -6.895462E-53
  18    -2.235744E-59    5.992870E-59    6.125239E-56    4.937817E-56   -9.030386E-53    2.099414E-51   -1.588056E-50    3.081845E-50    5.744987E-51   -6.765234E-51
        -2.432003E-51   -3.182674E-52   -1.947939E-53   -7.138617E-55

 CONCENTRATION WILL BE SAVED ON UNIT 1027 AT END OF TIME STEP    1, STRESS PERIOD   15


  MASS BUDGET FOR ENTIRE MODEL AT END OF TIME STEP    1, STRESS PERIOD  15
  ---------------------------------------------------------------------------------------------------

     CUMULATIVE MASS      M       RATES FOR THIS TIME STEP      M/T          PACKAGE NAME    
     ------------------                 ------------------------                     ----------------

           IN:                                      IN:
           ---                                      ---
     STORAGE-AQUEOUS =           0.6677       STORAGE-AQUEOUS =       6.7977E-04     MST                              
                 WEL =           5.7870                   WEL =           0.0000     SSM_WEL-1                        
                 CHD =           0.0000                   CHD =           0.0000     SSM_CHD-1                        

            TOTAL IN =           6.4547              TOTAL IN =       6.7977E-04

          OUT:                                     OUT:
          ----                                     ----
     STORAGE-AQUEOUS =           6.4547       STORAGE-AQUEOUS =       6.7977E-04     MST                              
                 WEL =       2.6676E-42                   WEL =           0.0000     SSM_WEL-1                        
                 CHD =           0.0000                   CHD =           0.0000     SSM_CHD-1                        

           TOTAL OUT =           6.4547             TOTAL OUT =       6.7977E-04

            IN - OUT =      -1.1387E-08              IN - OUT =       1.9213E-12

 PERCENT DISCREPANCY =          -0.00     PERCENT DISCREPANCY =           0.00




         TIME SUMMARY AT END OF TIME STEP    1 IN STRESS PERIOD   15
                    SECONDS     MINUTES      HOURS       DAYS        YEARS
                    -----------------------------------------------------------
   TIME STEP LENGTH  100.00      1.6667     2.77778E-02 1.15741E-03 3.16881E-06
 STRESS PERIOD TIME  100.00      1.6667     2.77778E-02 1.15741E-03 3.16881E-06
         TOTAL TIME  1500.0      25.000     0.41667     1.73611E-02 4.75321E-05


end timestep


start timestep kper="16" kstp="1" mode="normal"


 OUTPUT CONTROL FOR STRESS PERIOD 16 IS REPEATED USING SETTINGS FROM A PREVIOUS STRESS PERIOD.
 UBDSV1 SAVING     FLOW-JA-FACE ON UNIT   1026 AT TIME STEP      1, STRESS PERIOD     16
 UBDSV1 SAVING  STORAGE-AQUEOUS ON UNIT   1026 AT TIME STEP      1, STRESS PERIOD     16
 UBDSV06 SAVING  SOURCE-SINK MIX IN MODEL GWT-P09-MF6      PACKAGE GWT-P09-MF6     CONNECTED TO MODEL GWT-P09-MF6      PACKAGE SSM              ON UNIT   1026 AT TIME STEP      1, STRESS PERIOD     16

 SSM PACKAGE (SSM) FLOW RATES   PERIOD     16   STEP        1
 ------------------------------------------------------------------------------------------------
   NUMBER   CELLID                   BOUND Q        SSM CONC          RATE         PACKAGE NAME  
 ------------------------------------------------------------------------------------------------
     1      (1,4,7)               1.00000000E-03  0.0000000       0.0000000           WEL-1      
     2      (1,11,7)             -1.89000000E-02 -5.13133898E-28  0.0000000           WEL-1      
     1      (1,1,1)               0.13420314      0.0000000       0.0000000           CHD-1      
     2      (1,18,1)              5.97002084E-03  0.0000000       0.0000000           CHD-1      
     3      (1,1,2)               0.13413432      0.0000000       0.0000000           CHD-1      
     4      (1,18,2)              1.17464124E-02  0.0000000       0.0000000           CHD-1      
     5      (1,1,3)               0.13407626      0.0000000       0.0000000           CHD-1      
     6      (1,18,3)              1.33307991E-02  0.0000000       0.0000000           CHD-1      
     7      (1,1,4)               0.13404365      0.0000000       0.0000000           CHD-1      
     8      (1,18,4)              1.47517654E-02  0.0000000       0.0000000           CHD-1      
     9      (1,1,5)               0.13402620      0.0000000       0.0000000           CHD-1      
     10     (1,18,5)              1.61213390E-02  0.0000000       0.0000000           CHD-1      
     11     (1,1,6)               0.13401869      0.0000000       0.0000000           CHD-1      
     12     (1,18,6)              1.74750197E-02  0.0000000       0.0000000           CHD-1      
     13     (1,1,7)               0.13403570      0.0000000       0.0000000           CHD-1      
     14     (1,18,7)              1.88222702E-02  0.0000000       0.0000000           CHD-1      
     15     (1,1,8)               0.13411831      0.0000000       0.0000000           CHD-1      
     16     (1,18,8)              2.01652015E-02  0.0000000       0.0000000           CHD-1      
     17     (1,1,9)               0.13423316      0.0000000       0.0000000           CHD-1      
     18     (1,18,9)              2.15073844E-02  0.0000000       0.0000000           CHD-1      
     19     (1,1,10)              0.13430783      0.0000000       0.0000000           CHD-1      
     20     (1,18,10)             2.28545465E-02  0.0000000       0.0000000           CHD-1      
     21     (1,1,11)              0.13434258      0.0000000       0.0000000           CHD-1      
     22     (1,18,11)             2.42189731E-02  0.0000000       0.0000000           CHD-1      
     23     (1,1,12)              0.13435587      0.0000000       0.0000000           CHD-1      
     24     (1,18,12)             2.56368497E-02  0.0000000       0.0000000           CHD-1      
     25     (1,1,13)              0.13436030      0.0000000       0.0000000           CHD-1      
     26     (1,18,13)             2.72197203E-02  0.0000000       0.0000000           CHD-1      
     27     (1,1,14)              0.13436155      0.0000000       0.0000000           CHD-1      
     28     (1,18,14)             3.29955338E-02  0.0000000       0.0000000           CHD-1      
 ------------------------------------------------------------------------------------------------



1
  CONCENTRATION IN LAYER   1 AT END OF TIME STEP   1 IN STRESS PERIOD   16
  ---------------------------------------------------------------------------

                1               2               3               4               5               6               7               8               9              10
               11              12              13              14
 ................................................................................................................................................................
   1     4.786277E-19    8.189588E-17    1.285069E-14    1.771355E-12    2.021474E-10    1.704700E-08    8.033917E-07    1.856396E-08    2.287553E-10    1.990620E-12
         1.398111E-14    8.536189E-17    4.725104E-19    2.443794E-21
   2     2.807966E-18    5.935941E-16    1.165417E-13    2.036459E-11    2.980950E-09    3.252679E-07    2.013126E-05    3.824965E-07    3.826218E-09    2.599884E-11
         1.409878E-13    6.714427E-16    2.946984E-18    1.227370E-20
   3     8.069499E-18    2.432504E-15    6.916489E-13    1.770204E-10    3.799167E-08    6.023591E-06    5.408157E-04    8.059846E-06    6.117524E-08    2.855891E-10
         1.014167E-12    3.134676E-15    8.943105E-18    2.431055E-20
   4     1.029301E-17    4.424872E-15    2.063509E-12    9.470284E-10    3.655959E-07    1.005178E-04    1.432608E-02    1.201657E-04    6.286245E-07    1.833293E-09
         3.748364E-12    6.362243E-15    9.795645E-18    1.448937E-20
   5     1.220375E-19    1.328440E-16    7.996485E-14    4.581754E-11    2.267235E-08    8.543073E-06    1.508888E-03    9.630039E-06    5.777576E-08    8.036239E-11
         1.287465E-13    2.498307E-16    4.197865E-19    6.254627E-22
   6    -1.724335E-20   -2.266553E-20   -1.495945E-18    2.065708E-15    1.649897E-12    8.229975E-10    1.699259E-07   -3.114506E-10    8.584798E-11   -2.168304E-13
         7.321138E-16    2.753003E-18    5.189246E-21    7.814162E-24
   7    -7.768949E-23   -1.901476E-26   -5.555981E-26    9.240143E-23    7.805031E-20    3.071704E-17    9.965224E-15    2.230341E-15   -1.557471E-13   -1.788350E-15
         3.721950E-18    1.156857E-20    2.161414E-23    3.213370E-26
   8    -1.154805E-25   -9.773823E-32    6.616207E-33    1.378944E-30    1.055544E-27    1.232955E-25    7.705225E-23    7.328228E-22   -1.017464E-15   -3.444464E-18
         3.935555E-21    1.818897E-23    3.224065E-26    4.490417E-29
   9    -5.509901E-29    4.254865E-31    2.665786E-35    1.769710E-33    6.687656E-31   -3.453418E-29    5.082065E-24    1.586132E-20   -1.059842E-18   -1.133848E-20
        -1.091164E-23    1.358718E-26    2.435670E-29    2.561983E-32
  10    -5.265803E-33    7.404187E-35   -1.430820E-37    2.149504E-36    1.018402E-34    1.110448E-29   -2.127761E-25    2.833457E-23   -3.685814E-22   -9.425063E-24
        -2.883970E-26   -8.845672E-30    8.378903E-33    9.264140E-36
  11    -3.196763E-38    5.313648E-39   -1.425303E-40   -2.835145E-38   -4.458157E-34   -3.044557E-30   -5.131339E-28    2.516597E-26   -5.404140E-26   -2.510672E-27
        -4.256975E-29   -8.939424E-32   -1.430432E-35    7.031855E-39
  12    -3.712484E-43    1.307907E-43   -1.968714E-43   -4.621630E-39   -6.285373E-35   -3.812055E-33   -4.784367E-31    3.600763E-30   -2.083505E-30   -8.592884E-31
        -2.425705E-32   -2.008722E-34   -1.850886E-37   -2.039976E-41
  13    -1.569722E-47    5.025701E-48   -3.037201E-44   -6.473899E-40   -7.075088E-38   -8.967212E-36   -1.803305E-34    6.889534E-34   -1.555178E-34   -1.233618E-34
        -1.003397E-35   -1.383208E-37   -5.821535E-40   -4.233269E-43
  14    -1.610975E-51    3.440095E-49    2.105850E-45   -5.237379E-44   -3.043316E-41   -2.390536E-39   -6.091316E-38    1.877334E-37   -2.538809E-38   -3.192836E-38
        -3.688555E-39   -1.097938E-40   -9.080809E-43   -2.959865E-45
  15    -7.678486E-54   -2.422209E-50    1.561301E-48    4.201478E-46    2.034113E-44   -1.885935E-43   -3.147785E-41    8.886880E-41   -7.562882E-42   -1.631226E-41
        -2.458346E-42   -1.152824E-43   -1.865453E-45   -1.229183E-47
  16     6.225671E-55   -6.068964E-53   -1.252217E-50   -3.804784E-49    2.118724E-47    8.843574E-46   -2.788033E-44    7.319143E-44   -2.426060E-45   -1.493599E-44
        -2.884499E-45   -1.920863E-46   -5.027447E-48   -6.320782E-50
  17     4.139798E-57    6.068002E-55    9.170916E-54   -1.700169E-51   -2.878650E-50    2.668367E-48   -3.786795E-47    9.146641E-47    2.938742E-48   -2.077096E-47
        -5.149761E-48   -4.669414E-49   -1.825217E-50   -3.961397E-52
  18    -9.981884E-59   -3.012339E-58    2.752216E-55    1.667146E-54   -4.402152E-52    9.587513E-51   -7.051869E-50    1.388190E-49    2.410141E-50   -3.493250E-50
        -1.274432E-50   -1.715534E-51   -1.082513E-52   -4.100264E-54

 CONCENTRATION WILL BE SAVED ON UNIT 1027 AT END OF TIME STEP    1, STRESS PERIOD   16


  MASS BUDGET FOR ENTIRE MODEL AT END OF TIME STEP    1, STRESS PERIOD  16
  ---------------------------------------------------------------------------------------------------

     CUMULATIVE MASS      M       RATES FOR THIS TIME STEP      M/T          PACKAGE NAME    
     ------------------                 ------------------------                     ----------------

           IN:                                      IN:
           ---                                      ---
     STORAGE-AQUEOUS =           0.7355       STORAGE-AQUEOUS =       6.7745E-04     MST                              
                 WEL =           5.7870                   WEL =           0.0000     SSM_WEL-1                        
                 CHD =           0.0000                   CHD =           0.0000     SSM_CHD-1                        

            TOTAL IN =           6.5225              TOTAL IN =       6.7745E-04

          OUT:                                     OUT:
          ----                                     ----
     STORAGE-AQUEOUS =           6.5225       STORAGE-AQUEOUS =       6.7745E-04     MST                              
                 WEL =       2.6676E-42                   WEL =           0.0000     SSM_WEL-1                        
                 CHD =           0.0000                   CHD =           0.0000     SSM_CHD-1                        

           TOTAL OUT =           6.5225             TOTAL OUT =       6.7745E-04

            IN - OUT =      -1.0857E-08              IN - OUT =       5.2975E-12

 PERCENT DISCREPANCY =          -0.00     PERCENT DISCREPANCY =           0.00




         TIME SUMMARY AT END OF TIME STEP    1 IN STRESS PERIOD   16
                    SECONDS     MINUTES      HOURS       DAYS        YEARS
                    -----------------------------------------------------------
   TIME STEP LENGTH  100.00      1.6667     2.77778E-02 1.15741E-03 3.16881E-06
 STRESS PERIOD TIME  100.00      1.6667     2.77778E-02 1.15741E-03 3.16881E-06
         TOTAL TIME  1600.0      26.667     0.44444     1.85185E-02 5.07009E-05


end timestep


start timestep kper="17" kstp="1" mode="normal"


 OUTPUT CONTROL FOR STRESS PERIOD 17 IS REPEATED USING SETTINGS FROM A PREVIOUS STRESS PERIOD.
 UBDSV1 SAVING     FLOW-JA-FACE ON UNIT   1026 AT TIME STEP      1, STRESS PERIOD     17
 UBDSV1 SAVING  STORAGE-AQUEOUS ON UNIT   1026 AT TIME STEP      1, STRESS PERIOD     17
 UBDSV06 SAVING  SOURCE-SINK MIX IN MODEL GWT-P09-MF6      PACKAGE GWT-P09-MF6     CONNECTED TO MODEL GWT-P09-MF6      PACKAGE SSM              ON UNIT   1026 AT TIME STEP      1, STRESS PERIOD     17

 SSM PACKAGE (SSM) FLOW RATES   PERIOD     17   STEP        1
 ------------------------------------------------------------------------------------------------
   NUMBER   CELLID                   BOUND Q        SSM CONC          RATE         PACKAGE NAME  
 ------------------------------------------------------------------------------------------------
     1      (1,4,7)               1.00000000E-03  0.0000000       0.0000000           WEL-1      
     2      (1,11,7)             -1.89000000E-02 -9.05544415E-28  0.0000000           WEL-1      
     1      (1,1,1)               0.13024707      0.0000000       0.0000000           CHD-1      
     2      (1,18,1)              5.60853184E-03  0.0000000       0.0000000           CHD-1      
     3      (1,1,2)               0.13016344      0.0000000       0.0000000           CHD-1      
     4      (1,18,2)              1.13706205E-02  0.0000000       0.0000000           CHD-1      
     5      (1,1,3)               0.13009135      0.0000000       0.0000000           CHD-1      
     6      (1,18,3)              1.29296209E-02  0.0000000       0.0000000           CHD-1      
     7      (1,1,4)               0.13005061      0.0000000       0.0000000           CHD-1      
     8      (1,18,4)              1.43183432E-02  0.0000000       0.0000000           CHD-1      
     9      (1,1,5)               0.13003031      0.0000000       0.0000000           CHD-1      
     10     (1,18,5)              1.56521321E-02  0.0000000       0.0000000           CHD-1      
     11     (1,1,6)               0.13002487      0.0000000       0.0000000           CHD-1      
     12     (1,18,6)              1.69683261E-02  0.0000000       0.0000000           CHD-1      
     13     (1,1,7)               0.13005066      0.0000000       0.0000000           CHD-1      
     14     (1,18,7)              1.82771098E-02  0.0000000       0.0000000           CHD-1      
     15     (1,1,8)               0.13015109      0.0000000       0.0000000           CHD-1      
     16     (1,18,8)              1.95809142E-02  0.0000000       0.0000000           CHD-1      
     17     (1,1,9)               0.13029000      0.0000000       0.0000000           CHD-1      
     18     (1,18,9)              2.08837975E-02  0.0000000       0.0000000           CHD-1      
     19     (1,1,10)              0.13038200      0.0000000       0.0000000           CHD-1      
     20     (1,18,10)             2.21922686E-02  0.0000000       0.0000000           CHD-1      
     21     (1,1,11)              0.13042582      0.0000000       0.0000000           CHD-1      
     22     (1,18,11)             2.35198222E-02  0.0000000       0.0000000           CHD-1      
     23     (1,1,12)              0.13044300      0.0000000       0.0000000           CHD-1      
     24     (1,18,12)             2.49047069E-02  0.0000000       0.0000000           CHD-1      
     25     (1,1,13)              0.13044887      0.0000000       0.0000000           CHD-1      
     26     (1,18,13)             2.64617763E-02  0.0000000       0.0000000           CHD-1      
     27     (1,1,14)              0.13045057      0.0000000       0.0000000           CHD-1      
     28     (1,18,14)             3.22231130E-02  0.0000000       0.0000000           CHD-1      
 ------------------------------------------------------------------------------------------------



1
  CONCENTRATION IN LAYER   1 AT END OF TIME STEP   1 IN STRESS PERIOD   17
  ---------------------------------------------------------------------------

                1               2               3               4               5               6               7               8               9              10
               11              12              13              14
 ................................................................................................................................................................
   1     6.731462E-19    1.124863E-16    1.719710E-14    2.301567E-12    2.541036E-10    2.065855E-08    9.366241E-07    2.272596E-08    2.927368E-10    2.641924E-12
         1.911689E-14    1.197173E-16    6.776688E-19    3.576482E-21
   2     4.045365E-18    8.257801E-16    1.561840E-13    2.619654E-11    3.667568E-09    3.816977E-07    2.254055E-05    4.571587E-07    4.864704E-09    3.471059E-11
         1.952670E-13    9.579136E-16    4.314235E-18    1.839425E-20
   3     1.256300E-17    3.542258E-15    9.434952E-13    2.262425E-10    4.545908E-08    6.753606E-06    5.715942E-04    9.287921E-06    7.701663E-08    3.869814E-10
         1.452254E-12    4.698120E-15    1.397380E-17    3.950393E-20
   4     1.802837E-17    6.919883E-15    2.893414E-12    1.203129E-09    4.232482E-07    1.065523E-04    1.393734E-02    1.307620E-04    7.762249E-07    2.520883E-09
         5.624565E-12    1.029898E-14    1.699814E-17    2.677707E-20
   5     3.396033E-19    2.411608E-16    1.263463E-13    6.536757E-11    2.963601E-08    1.024669E-05    1.652054E-03    1.206574E-05    8.747108E-08    1.529412E-10
         2.468450E-13    4.711664E-16    8.247006E-19    1.300646E-21
   6    -3.686662E-20   -4.538334E-20   -3.070645E-18    3.413649E-15    2.586877E-12    1.193026E-09    2.231696E-07   -3.945430E-10    3.185583E-10   -1.439794E-14
         1.540980E-15    5.777001E-18    1.159454E-20    1.857756E-23
   7    -1.965474E-22   -4.994015E-26   -1.436993E-25    1.925381E-22    1.542849E-19    5.704414E-17    1.652187E-14    3.810335E-15    8.557790E-13   -2.546958E-15
         8.127812E-18    2.825704E-20    5.661553E-23    8.968593E-26
   8    -3.568666E-25   -4.166872E-31    1.766455E-32    3.416614E-30    2.466943E-27    2.828065E-25    1.627222E-22   -1.644424E-21    4.765453E-17   -6.398959E-18
         1.184882E-20    5.303768E-23    1.016614E-25    1.514423E-28
   9    -2.149051E-28    1.683016E-30    1.302575E-34    4.416393E-33    1.649623E-30   -1.634449E-28    7.837841E-24    1.514328E-20   -1.032628E-18   -1.401246E-20
        -2.303337E-23    4.918549E-26    9.134527E-29    1.057134E-31
  10    -2.656877E-32    3.686208E-34   -5.844012E-37    5.396843E-36    2.562801E-34    3.215757E-29   -3.079252E-25    4.355246E-23   -5.976460E-22   -1.572286E-23
        -5.521503E-26   -2.259807E-29    4.039046E-32    4.556300E-35
  11    -2.030305E-37    3.151983E-38   -8.760156E-40   -6.397855E-38   -8.706674E-34   -5.476415E-30   -9.055444E-28    4.882533E-26   -1.074855E-25   -5.569237E-27
        -9.801973E-29   -2.251219E-31   -4.532090E-35    4.091774E-38
  12    -2.747941E-42    9.388329E-43   -6.817103E-43   -1.245995E-38   -1.393595E-34   -8.937668E-33   -1.100383E-30    8.412521E-30   -5.018591E-30   -2.167590E-30
        -6.693809E-32   -5.790752E-34   -5.884834E-37   -8.011889E-41
  13    -1.334859E-46    4.660750E-47   -9.311937E-44   -1.645343E-39   -1.884090E-37   -2.312427E-35   -4.787918E-34    1.888896E-33   -4.663308E-34   -3.712546E-34
        -3.127057E-35   -4.702830E-37   -2.078614E-39   -1.658261E-42
  14    -1.535230E-50    1.208583E-48    6.359045E-45   -1.035720E-43   -8.095914E-41   -6.803799E-39   -1.852596E-37    5.912696E-37   -9.125028E-38   -1.112566E-37
        -1.324764E-38   -4.138420E-40   -3.655730E-42   -1.246565E-44
  15    -3.202810E-53   -8.231984E-50    4.520263E-48    1.301126E-45    6.978783E-44   -3.336650E-43   -1.066587E-40    3.101940E-40   -3.177795E-41   -6.303250E-41
        -9.763577E-42   -4.749948E-43   -8.023557E-45   -5.582721E-47
  16     2.298423E-54   -2.031933E-52   -4.311961E-50   -1.550854E-48    6.775986E-47    3.536377E-45   -1.014120E-43    2.726018E-43   -1.334741E-44   -6.162563E-44
        -1.220351E-44   -8.387920E-46   -2.270807E-47   -2.971030E-49
  17     1.505050E-56    2.247000E-54    4.874797E-53   -6.177087E-51   -1.433411E-49    1.060147E-47   -1.434664E-46    3.527702E-46    6.405754E-48   -8.891427E-47
        -2.255128E-47   -2.105023E-48   -8.478009E-50   -1.901397E-51
  18    -3.889355E-58   -3.299786E-57    1.070836E-54    1.219325E-53   -1.857002E-51    3.821623E-50   -2.739978E-49    5.448758E-49    8.936122E-50   -1.529908E-49
        -5.677952E-50   -7.847639E-51   -5.092548E-52   -1.987768E-53

 CONCENTRATION WILL BE SAVED ON UNIT 1027 AT END OF TIME STEP    1, STRESS PERIOD   17


  MASS BUDGET FOR ENTIRE MODEL AT END OF TIME STEP    1, STRESS PERIOD  17
  ---------------------------------------------------------------------------------------------------

     CUMULATIVE MASS      M       RATES FOR THIS TIME STEP      M/T          PACKAGE NAME    
     ------------------                 ------------------------                     ----------------

           IN:                                      IN:
           ---                                      ---
     STORAGE-AQUEOUS =           0.8027       STORAGE-AQUEOUS =       6.7183E-04     MST                              
                 WEL =           5.7870                   WEL =           0.0000     SSM_WEL-1                        
                 CHD =           0.0000                   CHD =           0.0000     SSM_CHD-1                        

            TOTAL IN =           6.5897              TOTAL IN =       6.7183E-04

          OUT:                                     OUT:
          ----                                     ----
     STORAGE-AQUEOUS =           6.5897       STORAGE-AQUEOUS =       6.7183E-04     MST                              
                 WEL =       2.6676E-42                   WEL =           0.0000     SSM_WEL-1                        
                 CHD =           0.0000                   CHD =           0.0000     SSM_CHD-1                        

           TOTAL OUT =           6.5897             TOTAL OUT =       6.7183E-04

            IN - OUT =      -9.9668E-09              IN - OUT =       8.9022E-12

 PERCENT DISCREPANCY =          -0.00     PERCENT DISCREPANCY =           0.00




         TIME SUMMARY AT END OF TIME STEP    1 IN STRESS PERIOD   17
                    SECONDS     MINUTES      HOURS       DAYS        YEARS
                    -----------------------------------------------------------
   TIME STEP LENGTH  100.00      1.6667     2.77778E-02 1.15741E-03 3.16881E-06
 STRESS PERIOD TIME  100.00      1.6667     2.77778E-02 1.15741E-03 3.16881E-06
         TOTAL TIME  1700.0      28.333     0.47222     1.96759E-02 5.38697E-05


end timestep


start timestep kper="18" kstp="1" mode="normal"


 OUTPUT CONTROL FOR STRESS PERIOD 18 IS REPEATED USING SETTINGS FROM A PREVIOUS STRESS PERIOD.
 UBDSV1 SAVING     FLOW-JA-FACE ON UNIT   1026 AT TIME STEP      1, STRESS PERIOD     18
 UBDSV1 SAVING  STORAGE-AQUEOUS ON UNIT   1026 AT TIME STEP      1, STRESS PERIOD     18
 UBDSV06 SAVING  SOURCE-SINK MIX IN MODEL GWT-P09-MF6      PACKAGE GWT-P09-MF6     CONNECTED TO MODEL GWT-P09-MF6      PACKAGE SSM              ON UNIT   1026 AT TIME STEP      1, STRESS PERIOD     18

 SSM PACKAGE (SSM) FLOW RATES   PERIOD     18   STEP        1
 ------------------------------------------------------------------------------------------------
   NUMBER   CELLID                   BOUND Q        SSM CONC          RATE         PACKAGE NAME  
 ------------------------------------------------------------------------------------------------
     1      (1,4,7)               1.00000000E-03  0.0000000       0.0000000           WEL-1      
     2      (1,11,7)             -1.89000000E-02 -9.14865561E-28  0.0000000           WEL-1      
     1      (1,1,1)               0.12659974      0.0000000       0.0000000           CHD-1      
     2      (1,18,1)              5.27450400E-03  0.0000000       0.0000000           CHD-1      
     3      (1,1,2)               0.12649974      0.0000000       0.0000000           CHD-1      
     4      (1,18,2)              1.10238678E-02  0.0000000       0.0000000           CHD-1      
     5      (1,1,3)               0.12641177      0.0000000       0.0000000           CHD-1      
     6      (1,18,3)              1.25601284E-02  0.0000000       0.0000000           CHD-1      
     7      (1,1,4)               0.12636168      0.0000000       0.0000000           CHD-1      
     8      (1,18,4)              1.39197494E-02  0.0000000       0.0000000           CHD-1      
     9      (1,1,5)               0.12633821      0.0000000       0.0000000           CHD-1      
     10     (1,18,5)              1.52210330E-02  0.0000000       0.0000000           CHD-1      
     11     (1,1,6)               0.12633544      0.0000000       0.0000000           CHD-1      
     12     (1,18,6)              1.65030057E-02  0.0000000       0.0000000           CHD-1      
     13     (1,1,7)               0.12637163      0.0000000       0.0000000           CHD-1      
     14     (1,18,7)              1.77765426E-02  0.0000000       0.0000000           CHD-1      
     15     (1,1,8)               0.12649246      0.0000000       0.0000000           CHD-1      
     16     (1,18,8)              1.90444082E-02  0.0000000       0.0000000           CHD-1      
     17     (1,1,9)               0.12665844      0.0000000       0.0000000           CHD-1      
     18     (1,18,9)              2.03111645E-02  0.0000000       0.0000000           CHD-1      
     19     (1,1,10)              0.12677022      0.0000000       0.0000000           CHD-1      
     20     (1,18,10)             2.15841201E-02  0.0000000       0.0000000           CHD-1      
     21     (1,1,11)              0.12682460      0.0000000       0.0000000           CHD-1      
     22     (1,18,11)             2.28779716E-02  0.0000000       0.0000000           CHD-1      
     23     (1,1,12)              0.12684644      0.0000000       0.0000000           CHD-1      
     24     (1,18,12)             2.42329111E-02  0.0000000       0.0000000           CHD-1      
     25     (1,1,13)              0.12685409      0.0000000       0.0000000           CHD-1      
     26     (1,18,13)             2.57667598E-02  0.0000000       0.0000000           CHD-1      
     27     (1,1,14)              0.12685635      0.0000000       0.0000000           CHD-1      
     28     (1,18,14)             3.15151659E-02  0.0000000       0.0000000           CHD-1      
 ------------------------------------------------------------------------------------------------



1
  CONCENTRATION IN LAYER   1 AT END OF TIME STEP   1 IN STRESS PERIOD   18
  ---------------------------------------------------------------------------

                1               2               3               4               5               6               7               8               9              10
               11              12              13              14
 ................................................................................................................................................................
   1     9.299537E-19    1.517851E-16    2.261726E-14    2.940784E-12    3.144106E-10    2.467889E-08    1.078478E-06    2.744096E-08    3.691339E-10    3.451847E-12
         2.570560E-14    1.649332E-16    9.537688E-19    5.132017E-21
   2     5.720599E-18    1.127620E-15    2.055458E-13    3.312162E-11    4.441877E-09    4.419737E-07    2.497533E-05    5.395985E-07    6.099478E-09    4.565423E-11
         2.660777E-13    1.342422E-15    6.194637E-18    2.700228E-20
   3     1.909674E-17    5.042796E-15    1.260550E-12    2.838757E-10    5.357283E-08    7.490400E-06    6.001134E-04    1.059478E-05    9.566589E-08    5.162227E-10
         2.042280E-12    6.893554E-15    2.130616E-17    6.245283E-20
   4     3.048743E-17    1.050459E-14    3.956668E-12    1.497879E-09    4.830958E-07    1.122750E-04    1.355839E-02    1.414700E-04    9.466044E-07    3.405774E-09
         8.250310E-12    1.620755E-14    2.852069E-17    4.763140E-20
   5     8.315689E-19    4.217341E-16    1.932601E-13    9.061566E-11    3.785337E-08    1.209453E-05    1.792188E-03    1.488513E-05    1.282762E-07    2.736406E-10
         4.570212E-13    8.625961E-16    1.559696E-18    2.586215E-21
   6    -7.454882E-20   -8.643198E-20   -5.921754E-18    5.414932E-15    3.917331E-12    1.681440E-09    2.870534E-07   -4.797447E-10    7.593897E-10    6.450469E-13
         3.192017E-15    1.165202E-17    2.467807E-20    4.181847E-23
   7    -4.651062E-22   -1.217595E-25   -3.444915E-25    3.801597E-22    2.906559E-19    1.013943E-16    2.646619E-14    6.276521E-15    3.540955E-12   -2.277868E-15
         1.722166E-17    6.537331E-20    1.395371E-22    2.342423E-25
   8    -1.018230E-24   -1.581935E-30    4.377628E-32    7.955045E-30    5.453680E-27    6.116987E-25    3.270498E-22   -7.336980E-21    5.119801E-15   -9.288764E-18
         3.322632E-20    1.449432E-22    2.977104E-25    4.716061E-28
   9    -7.625531E-28    6.048156E-30    5.745394E-34    1.031319E-32    3.807883E-30   -6.483736E-28    2.264301E-24   -2.879308E-20    2.279223E-18    8.053269E-21
        -3.446370E-23    1.641312E-25    3.157425E-28    3.977281E-31
  10    -1.199888E-31    1.646721E-33   -2.064915E-36    1.240045E-35   -7.022589E-34    7.486691E-29   -5.875594E-26    9.222767E-24   -3.177628E-23   -4.280628E-24
        -4.452770E-26   -3.582229E-29    1.750324E-31    2.022775E-34
  11    -1.131257E-36    1.645112E-37   -4.727443E-39   -1.178232E-37   -1.181425E-33   -5.782207E-30   -9.148656E-28    5.235731E-26   -1.101517E-25   -5.817473E-27
        -1.157356E-28   -3.493154E-31   -9.951798E-35    2.110167E-37
  12    -1.757462E-41    5.863340E-42   -2.262219E-42   -2.787230E-38   -2.264324E-34   -1.478187E-32   -1.794240E-30    1.374995E-29   -8.174875E-30   -3.642786E-30
        -1.162857E-31   -1.079383E-33   -1.305759E-36   -2.278822E-40
  13    -9.712692E-46    3.474025E-46   -2.396411E-43   -3.324408E-39   -3.892588E-37   -4.653527E-35   -9.892711E-34    3.979451E-33   -1.028371E-33   -8.250904E-34
        -7.088072E-35   -1.122732E-36   -5.259813E-39   -4.792768E-42
  14    -1.234907E-49    3.600258E-48    1.579549E-44   -1.395975E-43   -1.752189E-40   -1.580980E-38   -4.580169E-37    1.496446E-36   -2.489048E-37   -3.004827E-37
        -3.654001E-38   -1.180312E-39   -1.091258E-41   -3.907359E-44
  15    -1.253062E-52   -2.344989E-49    1.094160E-47    3.369103E-45    1.987639E-43   -1.812295E-43   -3.009010E-40    8.929378E-40   -1.016100E-40   -1.943901E-40
        -3.075709E-41   -1.538496E-42   -2.682448E-44   -1.945024E-46
  16     7.197557E-54   -5.813292E-52   -1.262193E-49   -5.225260E-48    1.823587E-46    1.177049E-44   -3.123196E-43    8.529859E-43   -5.073595E-44   -2.072306E-43
        -4.190600E-44   -2.954485E-45   -8.213685E-47   -1.108565E-48
  17     4.732947E-56    7.163033E-54    1.996001E-52   -1.922401E-50   -5.692801E-49    3.592594E-47   -4.665546E-46    1.160508E-45    1.037224E-47   -3.154564E-46
        -8.165346E-47   -7.810072E-48   -3.224148E-49   -7.427559E-51
  18    -1.318508E-57   -1.773264E-56    3.605559E-54    5.946322E-53   -6.725203E-51    1.319381E-49   -9.242238E-49    1.847532E-48    2.930641E-49   -5.624155E-49
        -2.124511E-49   -3.005245E-50   -1.997656E-51   -7.998665E-53

 CONCENTRATION WILL BE SAVED ON UNIT 1027 AT END OF TIME STEP    1, STRESS PERIOD   18


  MASS BUDGET FOR ENTIRE MODEL AT END OF TIME STEP    1, STRESS PERIOD  18
  ---------------------------------------------------------------------------------------------------

     CUMULATIVE MASS      M       RATES FOR THIS TIME STEP      M/T          PACKAGE NAME    
     ------------------                 ------------------------                     ----------------

           IN:                                      IN:
           ---                                      ---
     STORAGE-AQUEOUS =           0.8690       STORAGE-AQUEOUS =       6.6314E-04     MST                              
                 WEL =           5.7870                   WEL =           0.0000     SSM_WEL-1                        
                 CHD =           0.0000                   CHD =           0.0000     SSM_CHD-1                        

            TOTAL IN =           6.6560              TOTAL IN =       6.6314E-04

          OUT:                                     OUT:
          ----                                     ----
     STORAGE-AQUEOUS =           6.6560       STORAGE-AQUEOUS =       6.6314E-04     MST                              
                 WEL =       2.6676E-42                   WEL =           0.0000     SSM_WEL-1                        
                 CHD =           0.0000                   CHD =           0.0000     SSM_CHD-1                        

           TOTAL OUT =           6.6560             TOTAL OUT =       6.6314E-04

            IN - OUT =      -8.6891E-09              IN - OUT =       1.2777E-11

 PERCENT DISCREPANCY =          -0.00     PERCENT DISCREPANCY =           0.00




         TIME SUMMARY AT END OF TIME STEP    1 IN STRESS PERIOD   18
                    SECONDS     MINUTES      HOURS       DAYS        YEARS
                    -----------------------------------------------------------
   TIME STEP LENGTH  100.00      1.6667     2.77778E-02 1.15741E-03 3.16881E-06
 STRESS PERIOD TIME  100.00      1.6667     2.77778E-02 1.15741E-03 3.16881E-06
         TOTAL TIME  1800.0      30.000     0.50000     2.08333E-02 5.70386E-05


end timestep


start timestep kper="19" kstp="1" mode="normal"


 OUTPUT CONTROL FOR STRESS PERIOD 19 IS REPEATED USING SETTINGS FROM A PREVIOUS STRESS PERIOD.
 UBDSV1 SAVING     FLOW-JA-FACE ON UNIT   1026 AT TIME STEP      1, STRESS PERIOD     19
 UBDSV1 SAVING  STORAGE-AQUEOUS ON UNIT   1026 AT TIME STEP      1, STRESS PERIOD     19
 UBDSV06 SAVING  SOURCE-SINK MIX IN MODEL GWT-P09-MF6      PACKAGE GWT-P09-MF6     CONNECTED TO MODEL GWT-P09-MF6      PACKAGE SSM              ON UNIT   1026 AT TIME STEP      1, STRESS PERIOD     19

 SSM PACKAGE (SSM) FLOW RATES   PERIOD     19   STEP        1
 ------------------------------------------------------------------------------------------------
   NUMBER   CELLID                   BOUND Q        SSM CONC          RATE         PACKAGE NAME  
 ------------------------------------------------------------------------------------------------
     1      (1,4,7)               1.00000000E-03  0.0000000       0.0000000           WEL-1      
     2      (1,11,7)             -1.89000000E-02  1.55646343E-27 -2.94171588E-29      WEL-1      
     1      (1,1,1)               0.12322095      0.0000000       0.0000000           CHD-1      
     2      (1,18,1)              4.96460954E-03  0.0000000       0.0000000           CHD-1      
     3      (1,1,2)               0.12310311      0.0000000       0.0000000           CHD-1      
     4      (1,18,2)              1.07025923E-02  0.0000000       0.0000000           CHD-1      
     5      (1,1,3)               0.12299743      0.0000000       0.0000000           CHD-1      
     6      (1,18,3)              1.22183909E-02  0.0000000       0.0000000           CHD-1      
     7      (1,1,4)               0.12293674      0.0000000       0.0000000           CHD-1      
     8      (1,18,4)              1.35516423E-02  0.0000000       0.0000000           CHD-1      
     9      (1,1,5)               0.12290974      0.0000000       0.0000000           CHD-1      
     10     (1,18,5)              1.48232876E-02  0.0000000       0.0000000           CHD-1      
     11     (1,1,6)               0.12291030      0.0000000       0.0000000           CHD-1      
     12     (1,18,6)              1.60738992E-02  0.0000000       0.0000000           CHD-1      
     13     (1,1,7)               0.12295857      0.0000000       0.0000000           CHD-1      
     14     (1,18,7)              1.73150107E-02  0.0000000       0.0000000           CHD-1      
     15     (1,1,8)               0.12310246      0.0000000       0.0000000           CHD-1      
     16     (1,18,8)              1.85497314E-02  0.0000000       0.0000000           CHD-1      
     17     (1,1,9)               0.12329855      0.0000000       0.0000000           CHD-1      
     18     (1,18,9)              1.97831402E-02  0.0000000       0.0000000           CHD-1      
     19     (1,1,10)              0.12343261      0.0000000       0.0000000           CHD-1      
     20     (1,18,10)             2.10233586E-02  0.0000000       0.0000000           CHD-1      
     21     (1,1,11)              0.12349915      0.0000000       0.0000000           CHD-1      
     22     (1,18,11)             2.22862719E-02  0.0000000       0.0000000           CHD-1      
     23     (1,1,12)              0.12352646      0.0000000       0.0000000           CHD-1      
     24     (1,18,12)             2.36139028E-02  0.0000000       0.0000000           CHD-1      
     25     (1,1,13)              0.12353625      0.0000000       0.0000000           CHD-1      
     26     (1,18,13)             2.51267414E-02  0.0000000       0.0000000           CHD-1      
     27     (1,1,14)              0.12353920      0.0000000       0.0000000           CHD-1      
     28     (1,18,14)             3.08635271E-02  0.0000000       0.0000000           CHD-1      
 ------------------------------------------------------------------------------------------------



1
  CONCENTRATION IN LAYER   1 AT END OF TIME STEP   1 IN STRESS PERIOD   19
  ---------------------------------------------------------------------------

                1               2               3               4               5               6               7               8               9              10
               11              12              13              14
 ................................................................................................................................................................
   1     1.264217E-18    2.015597E-16    2.928336E-14    3.701243E-12    3.835559E-10    2.910673E-08    1.228255E-06    3.273118E-08    4.594102E-10    4.447918E-12
         3.405710E-14    2.236628E-16    1.320061E-18    7.235828E-21
   2     7.956487E-18    1.514359E-15    2.661377E-13    4.123320E-11    5.304471E-09    5.057217E-07    2.741984E-05    6.298788E-07    7.553669E-09    5.926257E-11
         3.574287E-13    1.851977E-15    8.743662E-18    3.891694E-20
   3     2.842044E-17    7.036244E-15    1.653307E-12    3.504048E-10    6.229380E-08    8.227987E-06    6.264134E-04    1.197702E-05    1.174156E-07    6.791328E-10
         2.826824E-12    9.929209E-15    3.179645E-17    9.637463E-20
   4     4.997187E-17    1.553338E-14    5.293320E-12    1.832451E-09    5.452016E-07    1.176759E-04    1.319000E-02    1.522870E-04    1.141672E-06    4.530068E-09
         1.186322E-11    2.488388E-14    4.646350E-17    8.192415E-20
   5     1.859469E-18    7.133978E-16    2.873412E-13    1.224958E-10    4.738524E-08    1.407712E-05    1.928560E-03    1.811313E-05    1.829885E-07    4.660459E-10
         8.191724E-13    1.538686E-15    2.854483E-18    4.944958E-21
   6    -1.433971E-19   -1.574578E-19   -1.082139E-17    8.284680E-15    5.753164E-12    2.311823E-09    3.624701E-07   -5.582552E-10    1.523095E-09    2.225995E-12
         6.488230E-15    2.272040E-17    5.035322E-20    8.972155E-23
   7    -1.036742E-21   -2.781517E-25   -7.732035E-25    7.155770E-22    5.247027E-19    1.733933E-16    4.111497E-14    1.001334E-14    9.484012E-12    1.703595E-15
         3.576847E-17    1.442750E-19    3.260212E-22    5.769731E-25
   8    -2.705186E-24   -5.440605E-30    1.013374E-31    1.752192E-29    1.147370E-26    1.256355E-24    6.283229E-22   -1.388084E-20    2.058743E-14   -6.367673E-18
         8.778411E-20    3.741284E-22    8.167758E-25    1.368450E-27
   9    -2.486295E-27    1.994374E-29    2.307388E-33    2.268800E-32    8.285304E-30   -2.283039E-27   -4.391680E-23   -2.226233E-19    1.766461E-17    1.274658E-19
        -3.488182E-24    5.103481E-25    1.014926E-27    1.378454E-30
  10    -4.907224E-31    6.676455E-33   -6.355570E-36    2.610377E-35   -8.877979E-33    1.341431E-28    1.712892E-24   -2.649153E-22    4.854465E-21    1.068889E-22
         2.421142E-25    4.104262E-29    6.907448E-31    8.204904E-34
  11    -5.604369E-36    7.648701E-37   -2.277573E-38   -1.505943E-37    6.329224E-35    8.387947E-30    1.556463E-27   -1.140663E-25    3.259730E-25    2.521636E-26
         3.665290E-28    3.989814E-31   -1.791107E-35    9.783547E-37
  12    -9.854789E-41    3.231597E-41   -7.535025E-42   -4.564600E-38   -9.217242E-35   -1.965522E-33   -2.053104E-31   -9.637852E-32    2.386016E-30    1.368999E-30
         1.120540E-31    6.423519E-34   -3.937602E-37   -2.230285E-40
  13    -6.143366E-45    2.206277E-45   -4.787667E-43   -4.036886E-39   -4.242938E-37   -4.916305E-35   -1.035544E-33    3.901316E-33   -7.781768E-34   -6.476942E-34
        -4.721488E-35   -4.715921E-37   -3.305807E-39   -5.928371E-42
  14    -8.560510E-49    8.672609E-48    2.825645E-44   -1.774788E-43   -2.668470E-40   -2.543124E-38   -7.560171E-37    2.428235E-36   -3.618162E-37   -4.580064E-37
        -5.411106E-38   -1.664622E-39   -1.455740E-41   -5.850209E-44
  15    -4.875325E-52   -5.188719E-49    2.233174E-47    6.753825E-45    4.273773E-43    5.874902E-43   -6.324382E-40    1.868918E-39   -1.999652E-40   -4.010968E-40
        -6.329840E-41   -3.146460E-42   -5.430476E-44   -3.943209E-46
  16     1.819528E-53   -1.411095E-51   -2.999950E-49   -1.371110E-47    4.066931E-46    3.022675E-44   -7.601646E-43    2.075618E-42   -1.184855E-43   -5.094303E-43
        -1.038071E-43   -7.368562E-45   -2.058581E-46   -2.796899E-48
  17     1.281030E-55    1.909759E-53    6.243983E-52   -5.038582E-50   -1.729460E-48    9.907879E-47   -1.245334E-45    3.098512E-45    2.943485E-47   -8.643660E-46
        -2.266137E-46   -2.195416E-47   -9.168936E-49   -2.138165E-50
  18    -3.819014E-57   -6.573342E-56    1.038993E-53    2.098857E-52   -2.023409E-50    3.828074E-49   -2.626326E-48    5.236342E-48    8.414369E-49   -1.655413E-48
        -6.352212E-49   -9.130613E-50   -6.163936E-51   -2.506830E-52

 CONCENTRATION WILL BE SAVED ON UNIT 1027 AT END OF TIME STEP    1, STRESS PERIOD   19


  MASS BUDGET FOR ENTIRE MODEL AT END OF TIME STEP    1, STRESS PERIOD  19
  ---------------------------------------------------------------------------------------------------

     CUMULATIVE MASS      M       RATES FOR THIS TIME STEP      M/T          PACKAGE NAME    
     ------------------                 ------------------------                     ----------------

           IN:                                      IN:
           ---                                      ---
     STORAGE-AQUEOUS =           0.9342       STORAGE-AQUEOUS =       6.5201E-04     MST                              
                 WEL =           5.7870                   WEL =           0.0000     SSM_WEL-1                        
                 CHD =           0.0000                   CHD =           0.0000     SSM_CHD-1                        

            TOTAL IN =           6.7212              TOTAL IN =       6.5201E-04

          OUT:                                     OUT:
          ----                                     ----
     STORAGE-AQUEOUS =           6.7212       STORAGE-AQUEOUS =       6.5201E-04     MST                              
                 WEL =       2.9417E-27                   WEL =       2.9417E-29     SSM_WEL-1                        
                 CHD =           0.0000                   CHD =           0.0000     SSM_CHD-1                        

           TOTAL OUT =           6.7212             TOTAL OUT =       6.5201E-04

            IN - OUT =      -7.0090E-09              IN - OUT =       1.6800E-11

 PERCENT DISCREPANCY =          -0.00     PERCENT DISCREPANCY =           0.00




         TIME SUMMARY AT END OF TIME STEP    1 IN STRESS PERIOD   19
                    SECONDS     MINUTES      HOURS       DAYS        YEARS
                    -----------------------------------------------------------
   TIME STEP LENGTH  100.00      1.6667     2.77778E-02 1.15741E-03 3.16881E-06
 STRESS PERIOD TIME  100.00      1.6667     2.77778E-02 1.15741E-03 3.16881E-06
         TOTAL TIME  1900.0      31.667     0.52778     2.19907E-02 6.02074E-05


end timestep


start timestep kper="20" kstp="1" mode="normal"


 OUTPUT CONTROL FOR STRESS PERIOD 20 IS REPEATED USING SETTINGS FROM A PREVIOUS STRESS PERIOD.
 UBDSV1 SAVING     FLOW-JA-FACE ON UNIT   1026 AT TIME STEP      1, STRESS PERIOD     20
 UBDSV1 SAVING  STORAGE-AQUEOUS ON UNIT   1026 AT TIME STEP      1, STRESS PERIOD     20
 UBDSV06 SAVING  SOURCE-SINK MIX IN MODEL GWT-P09-MF6      PACKAGE GWT-P09-MF6     CONNECTED TO MODEL GWT-P09-MF6      PACKAGE SSM              ON UNIT   1026 AT TIME STEP      1, STRESS PERIOD     20

 SSM PACKAGE (SSM) FLOW RATES   PERIOD     20   STEP        1
 ------------------------------------------------------------------------------------------------
   NUMBER   CELLID                   BOUND Q        SSM CONC          RATE         PACKAGE NAME  
 ------------------------------------------------------------------------------------------------
     1      (1,4,7)               1.00000000E-03  0.0000000       0.0000000           WEL-1      
     2      (1,11,7)             -1.89000000E-02  1.31448469E-26 -2.48437606E-28      WEL-1      
     1      (1,1,1)               0.12007708      0.0000000       0.0000000           CHD-1      
     2      (1,18,1)              4.67605085E-03  0.0000000       0.0000000           CHD-1      
     3      (1,1,2)               0.11993996      0.0000000       0.0000000           CHD-1      
     4      (1,18,2)              1.04038056E-02  0.0000000       0.0000000           CHD-1      
     5      (1,1,3)               0.11981479      0.0000000       0.0000000           CHD-1      
     6      (1,18,3)              1.19011154E-02  0.0000000       0.0000000           CHD-1      
     7      (1,1,4)               0.11974223      0.0000000       0.0000000           CHD-1      
     8      (1,18,4)              1.32103852E-02  0.0000000       0.0000000           CHD-1      
     9      (1,1,5)               0.11971137      0.0000000       0.0000000           CHD-1      
     10     (1,18,5)              1.44549118E-02  0.0000000       0.0000000           CHD-1      
     11     (1,1,6)               0.11971593      0.0000000       0.0000000           CHD-1      
     12     (1,18,6)              1.56766818E-02  0.0000000       0.0000000           CHD-1      
     13     (1,1,7)               0.11977802      0.0000000       0.0000000           CHD-1      
     14     (1,18,7)              1.68878549E-02  0.0000000       0.0000000           CHD-1      
     15     (1,1,8)               0.11994764      0.0000000       0.0000000           CHD-1      
     16     (1,18,8)              1.80918944E-02  0.0000000       0.0000000           CHD-1      
     17     (1,1,9)               0.12017689      0.0000000       0.0000000           CHD-1      
     18     (1,18,9)              1.92944065E-02  0.0000000       0.0000000           CHD-1      
     19     (1,1,10)              0.12033575      0.0000000       0.0000000           CHD-1      
     20     (1,18,10)             2.05043334E-02  0.0000000       0.0000000           CHD-1      
     21     (1,1,11)              0.12041608      0.0000000       0.0000000           CHD-1      
     22     (1,18,11)             2.17387318E-02  0.0000000       0.0000000           CHD-1      
     23     (1,1,12)              0.12044976      0.0000000       0.0000000           CHD-1      
     24     (1,18,12)             2.30413493E-02  0.0000000       0.0000000           CHD-1      
     25     (1,1,13)              0.12046209      0.0000000       0.0000000           CHD-1      
     26     (1,18,13)             2.45350828E-02  0.0000000       0.0000000           CHD-1      
     27     (1,1,14)              0.12046589      0.0000000       0.0000000           CHD-1      
     28     (1,18,14)             3.02613665E-02  0.0000000       0.0000000           CHD-1      
 ------------------------------------------------------------------------------------------------



1
  CONCENTRATION IN LAYER   1 AT END OF TIME STEP   1 IN STRESS PERIOD   20
  ---------------------------------------------------------------------------

                1               2               3               4               5               6               7               8               9              10
               11              12              13              14
 ................................................................................................................................................................
   1     1.693761E-18    2.637987E-16    3.737965E-14    4.595160E-12    4.619677E-10    3.393700E-08    1.385237E-06    3.861627E-08    5.651049E-10    5.661020E-12
         4.453161E-14    2.990634E-16    1.799885E-18    1.004268E-20
   2     1.090301E-17    2.003484E-15    3.395694E-13    5.061992E-11    6.255561E-09    5.725457E-07    2.986013E-05    7.280315E-07    9.251752E-09    7.603356E-11
         4.741418E-13    2.519816E-15    1.215564E-17    5.517777E-20
   3     4.150413E-17    9.643382E-15    2.132972E-12    4.262614E-10    7.158850E-08    8.960938E-06    6.505583E-04    1.343127E-05    1.425690E-07    8.824385E-10
         3.858361E-12    1.407085E-14    4.656446E-17    1.455772E-19
   4     7.965221E-17    2.244109E-14    6.946428E-12    2.207744E-09    6.092537E-07    1.227513E-04    1.283265E-02    1.632111E-04    1.363362E-06    5.942220E-09
         1.676079E-11    3.738399E-14    7.375304E-17    1.367719E-19
   5     3.875596E-18    1.171329E-15    4.166731E-13    1.619738E-10    5.827853E-08    1.618417E-05    2.060604E-03    2.177286E-05    2.547796E-07    7.619298E-10
         1.424748E-12    2.681730E-15    5.077434E-18    9.135695E-21
   6    -2.636461E-19   -2.757047E-19   -1.886779E-17    1.227558E-14    8.223471E-12    3.109527E-09    4.502355E-07   -6.176733E-10    2.764787E-09    5.503509E-12
         1.289848E-14    4.303088E-17    9.902119E-20    1.845167E-22
   7    -2.189767E-21   -5.999656E-25   -1.638041E-24    1.290711E-21    9.118841E-19    2.865128E-16    6.213929E-14    1.553280E-14    2.128915E-11    1.538311E-14
         7.331189E-17    3.055823E-19    7.267135E-22    1.349214E-24
   8    -6.740102E-24   -1.716907E-29    2.201527E-31    3.671743E-29    2.308991E-26    2.464406E-24    1.158696E-21   -3.076727E-21    5.972042E-14    2.030187E-17
         2.205620E-19    9.181429E-22    2.114996E-24    3.728837E-27
   9    -7.512429E-27    6.085577E-29    8.508915E-33    4.728044E-32    1.708803E-29   -7.364368E-27   -2.305800E-22   -8.398247E-19    6.875376E-17    5.457207E-19
         2.297257E-22    1.491944E-24    3.057181E-27    4.439756E-30
  10    -1.835558E-30    2.480628E-32   -1.906221E-35    5.006190E-35   -4.734467E-32    1.430572E-28    8.443530E-24   -1.363768E-21    2.600745E-20    5.978481E-22
         1.698880E-24    6.570118E-28    2.510668E-30    3.071441E-33
  11    -2.496858E-35    3.200695E-36   -9.925362E-38   -6.948193E-39    7.777500E-33    7.634147E-29    1.314485E-26   -9.976489E-25    2.676338E-24    2.104545E-25
         3.358541E-27    6.180086E-30    1.297014E-33    4.129097E-36
  12    -4.905078E-40    1.590844E-40   -2.596283E-41   -1.823595E-38    1.213364E-33    1.152284E-31    1.418495E-29   -1.237934E-28    9.316122E-29    4.589002E-29
         2.182411E-30    1.805901E-32    1.561028E-35    2.564534E-39
  13    -3.423245E-44    1.228190E-44   -4.988024E-43    5.350393E-39    1.150088E-36    1.388355E-34    3.501431E-33   -1.775691E-32    7.528076E-33    5.941026E-33
         6.269343E-34    1.415500E-35    6.182925E-38    4.086389E-41
  14    -5.195248E-48    1.409118E-47    1.005485E-44   -1.286131E-42   -5.905742E-41    8.830930E-40    3.515548E-37   -2.141650E-36    1.109525E-36    1.087183E-36
         1.679155E-37    7.364827E-39    9.092310E-41    3.022461E-43
  15    -1.994105E-51   -6.126274E-49    4.392758E-47    7.296201E-45    3.953245E-43   -4.238330E-42   -4.516943E-40    9.467088E-40    2.211851E-40    1.142510E-40
         3.636853E-41    3.190180E-42    8.630883E-44    8.526186E-46
  16     3.053792E-53   -2.898342E-51   -4.898370E-49   -2.113766E-47    7.699052E-46    4.066421E-44   -1.066809E-42    2.672037E-42    6.777068E-44   -4.132259E-43
        -7.058400E-44   -3.580553E-45   -5.029121E-47    1.086313E-49
  17     2.944950E-55    3.877523E-53    1.248819E-51   -1.068889E-49   -3.089089E-48    1.857430E-46   -2.310244E-45    5.530592E-45    2.676245E-46   -1.289700E-45
        -3.265081E-46   -2.970216E-47   -1.139971E-48   -2.380314E-50
  18    -8.934117E-57   -1.552243E-55    2.483305E-53    4.497270E-52   -4.510180E-50    8.441097E-49   -5.692376E-48    1.108706E-47    2.043942E-48   -3.212940E-48
        -1.237519E-48   -1.754244E-49   -1.158547E-50   -4.570851E-52

 CONCENTRATION WILL BE SAVED ON UNIT 1027 AT END OF TIME STEP    1, STRESS PERIOD   20


  MASS BUDGET FOR ENTIRE MODEL AT END OF TIME STEP    1, STRESS PERIOD  20
  ---------------------------------------------------------------------------------------------------

     CUMULATIVE MASS      M       RATES FOR THIS TIME STEP      M/T          PACKAGE NAME    
     ------------------                 ------------------------                     ----------------

           IN:                                      IN:
           ---                                      ---
     STORAGE-AQUEOUS =           0.9981       STORAGE-AQUEOUS =       6.3899E-04     MST                              
                 WEL =           5.7870                   WEL =           0.0000     SSM_WEL-1                        
                 CHD =           0.0000                   CHD =           0.0000     SSM_CHD-1                        

            TOTAL IN =           6.7851              TOTAL IN =       6.3899E-04

          OUT:                                     OUT:
          ----                                     ----
     STORAGE-AQUEOUS =           6.7851       STORAGE-AQUEOUS =       6.3899E-04     MST                              
                 WEL =       2.7785E-26                   WEL =       2.4844E-28     SSM_WEL-1                        
                 CHD =           0.0000                   CHD =           0.0000     SSM_CHD-1                        

           TOTAL OUT =           6.7851             TOTAL OUT =       6.3899E-04

            IN - OUT =      -4.9197E-09              IN - OUT =       2.0893E-11

 PERCENT DISCREPANCY =          -0.00     PERCENT DISCREPANCY =           0.00




         TIME SUMMARY AT END OF TIME STEP    1 IN STRESS PERIOD   20
                    SECONDS     MINUTES      HOURS       DAYS        YEARS
                    -----------------------------------------------------------
   TIME STEP LENGTH  100.00      1.6667     2.77778E-02 1.15741E-03 3.16881E-06
 STRESS PERIOD TIME  100.00      1.6667     2.77778E-02 1.15741E-03 3.16881E-06
         TOTAL TIME  2000.0      33.333     0.55556     2.31481E-02 6.33762E-05


end timestep


start timestep kper="21" kstp="1" mode="normal"


 OUTPUT CONTROL FOR STRESS PERIOD 21 IS REPEATED USING SETTINGS FROM A PREVIOUS STRESS PERIOD.
 UBDSV1 SAVING     FLOW-JA-FACE ON UNIT   1026 AT TIME STEP      1, STRESS PERIOD     21
 UBDSV1 SAVING  STORAGE-AQUEOUS ON UNIT   1026 AT TIME STEP      1, STRESS PERIOD     21
 UBDSV06 SAVING  SOURCE-SINK MIX IN MODEL GWT-P09-MF6      PACKAGE GWT-P09-MF6     CONNECTED TO MODEL GWT-P09-MF6      PACKAGE SSM              ON UNIT   1026 AT TIME STEP      1, STRESS PERIOD     21

 SSM PACKAGE (SSM) FLOW RATES   PERIOD     21   STEP        1
 ------------------------------------------------------------------------------------------------
   NUMBER   CELLID                   BOUND Q        SSM CONC          RATE         PACKAGE NAME  
 ------------------------------------------------------------------------------------------------
     1      (1,4,7)               1.00000000E-03  0.0000000       0.0000000           WEL-1      
     2      (1,11,7)             -1.89000000E-02  5.23115842E-26 -9.88688941E-28      WEL-1      
     1      (1,1,1)               0.11713972      0.0000000       0.0000000           CHD-1      
     2      (1,18,1)              4.40645964E-03  0.0000000       0.0000000           CHD-1      
     3      (1,1,2)               0.11698202      0.0000000       0.0000000           CHD-1      
     4      (1,18,2)              1.01249830E-02  0.0000000       0.0000000           CHD-1      
     5      (1,1,3)               0.11683561      0.0000000       0.0000000           CHD-1      
     6      (1,18,3)              1.16055236E-02  0.0000000       0.0000000           CHD-1      
     7      (1,1,4)               0.11674995      0.0000000       0.0000000           CHD-1      
     8      (1,18,4)              1.28929098E-02  0.0000000       0.0000000           CHD-1      
     9      (1,1,5)               0.11671488      0.0000000       0.0000000           CHD-1      
     10     (1,18,5)              1.41125434E-02  0.0000000       0.0000000           CHD-1      
     11     (1,1,6)               0.11672413      0.0000000       0.0000000           CHD-1      
     12     (1,18,6)              1.53077022E-02  0.0000000       0.0000000           CHD-1      
     13     (1,1,7)               0.11680183      0.0000000       0.0000000           CHD-1      
     14     (1,18,7)              1.64911411E-02  0.0000000       0.0000000           CHD-1      
     15     (1,1,8)               0.11699987      0.0000000       0.0000000           CHD-1      
     16     (1,18,8)              1.76666845E-02  0.0000000       0.0000000           CHD-1      
     17     (1,1,9)               0.11726525      0.0000000       0.0000000           CHD-1      
     18     (1,18,9)              1.88404737E-02  0.0000000       0.0000000           CHD-1      
     19     (1,1,10)              0.11745144      0.0000000       0.0000000           CHD-1      
     20     (1,18,10)             2.00222742E-02  0.0000000       0.0000000           CHD-1      
     21     (1,1,11)              0.11754727      0.0000000       0.0000000           CHD-1      
     22     (1,18,11)             2.12302940E-02  0.0000000       0.0000000           CHD-1      
     23     (1,1,12)              0.11758823      0.0000000       0.0000000           CHD-1      
     24     (1,18,12)             2.25099067E-02  0.0000000       0.0000000           CHD-1      
     25     (1,1,13)              0.11760355      0.0000000       0.0000000           CHD-1      
     26     (1,18,13)             2.39861870E-02  0.0000000       0.0000000           CHD-1      
     27     (1,1,14)              0.11760835      0.0000000       0.0000000           CHD-1      
     28     (1,18,14)             2.97029302E-02  0.0000000       0.0000000           CHD-1      
 ------------------------------------------------------------------------------------------------



1
  CONCENTRATION IN LAYER   1 AT END OF TIME STEP   1 IN STRESS PERIOD   21
  ---------------------------------------------------------------------------

                1               2               3               4               5               6               7               8               9              10
               11              12              13              14
 ................................................................................................................................................................
   1     2.239379E-18    3.407208E-16    4.710157E-14    5.634594E-12    5.500077E-10    3.916115E-08    1.548698E-06    4.511334E-08    6.878338E-10    7.125710E-12
         5.754683E-14    3.948776E-16    2.421383E-18    1.374223E-20
   2     1.474207E-17    2.614921E-15    4.275433E-13    6.136411E-11    7.294036E-09    6.420380E-07    3.228401E-05    8.340599E-07    1.121955E-08    9.653795E-11
         6.220007E-13    3.386716E-15    1.667238E-17    7.709547E-20
   3     5.958839E-17    1.300576E-14    2.711423E-12    5.118067E-10    8.140465E-08    9.684434E-06    6.726288E-04    1.495418E-05    1.714390E-07    1.133867E-09
         5.201199E-12    1.965581E-14    6.706388E-17    2.157705E-19
   4     1.238090E-16    3.175397E-14    8.961985E-12    2.624349E-09    6.748611E-07    1.275026E-04    1.248665E-02    1.742408E-04    1.613626E-06    7.697576E-09
         2.331235E-11    5.509417E-14    1.144083E-16    2.223741E-19
   5     7.627888E-18    1.872154E-15    5.909676E-13    2.100384E-10    7.056571E-08    1.840497E-05    2.187898E-03    2.588538E-05    3.471893E-07    1.203012E-09
         2.409559E-12    4.576292E-15    8.809496E-18    1.637539E-20
   6    -4.652031E-19   -4.658873E-19   -3.156571E-17    1.767735E-14    1.147453E-11    4.101444E-09    5.510825E-07   -6.415156E-10    4.687654E-09    1.170434E-11
         2.501148E-14    7.945324E-17    1.885308E-19    3.655113E-22
   7    -4.404735E-21   -1.229804E-24   -3.297409E-24    2.240834E-21    1.531723E-18    4.591273E-16    9.161779E-14    2.350988E-14    4.302616E-11    5.075460E-14
         1.487229E-16    6.243816E-19    1.553810E-21    3.012490E-24
   8    -1.584545E-23   -5.021570E-29    4.501425E-31    7.355644E-29    4.464145E-26    4.639055E-24    2.058976E-21    8.934891E-20    1.480464E-13    1.169819E-16
         5.308716E-19    2.154259E-21    5.202110E-24    9.605535E-27
   9    -2.118890E-26    1.730774E-28    2.901907E-32    9.376336E-32    3.354405E-29   -2.220166E-26   -8.297061E-22   -2.512772E-18    2.124959E-16    1.763610E-18
         1.159702E-21    4.130982E-24    8.687104E-27    1.338981E-29
  10    -6.333380E-30    8.516608E-32   -5.130219E-35    8.593591E-35   -1.883219E-31   -1.336741E-28    2.903697E-23   -4.864708E-21    9.855585E-20    2.298778E-21
         7.165845E-24    3.556804E-27    8.487073E-30    1.070055E-32
  11    -1.045284E-34    1.215931E-35   -3.952943E-37    7.214815E-37    3.606179E-32    3.048368E-28    5.231158E-26   -4.287485E-24    1.168938E-23    9.829784E-25
         1.593264E-26    3.270400E-29    9.013796E-33    1.603389E-35
  12    -2.250459E-39    7.147307E-40   -9.218688E-41    2.555106E-37    6.739102E-33    6.349352E-31    7.835535E-29   -6.851786E-28    5.135807E-28    2.566523E-28
         1.257798E-29    1.082891E-31    1.099674E-34    2.371142E-38
  13    -1.737253E-43    6.154603E-44    1.406321E-42    5.844797E-38    9.973467E-36    1.176739E-33    2.957914E-32   -1.438331E-31    5.691449E-32    4.537215E-32
         4.733368E-33    1.066591E-34    4.945386E-37    4.078563E-40
  14    -2.845623E-47   -3.352667E-48   -2.023967E-43   -1.097503E-41    1.445492E-39    2.221228E-37    1.005716E-35   -4.075203E-35    1.260954E-35    1.350223E-35
         1.949044E-36    8.010336E-38    9.524164E-40    3.441331E-42
  15    -8.807311E-51    1.688992E-48    1.308237E-46   -1.635088E-44   -2.197031E-42   -6.936087E-41    4.421767E-39   -1.666770E-38    4.738109E-39    6.647007E-39
         1.243646E-39    7.660804E-41    1.660214E-42    1.471839E-44
  16    -1.401642E-53   -5.408625E-51    2.403147E-50    3.701591E-47    1.685303E-45   -1.383846E-43    2.268360E-42   -8.573860E-42    2.651361E-42    4.730719E-42
         1.138705E-42    9.871369E-44    3.375443E-45    5.602674E-47
  17     5.658656E-55    3.539404E-53   -6.989751E-52   -1.689357E-49    5.614840E-48   -4.983232E-47    1.419067E-46   -2.535830E-45    2.164141E-45    3.805918E-45
         1.205117E-45    1.467292E-46    7.631811E-48    2.198768E-49
  18    -1.352615E-56    9.331355E-57    4.523899E-53   -4.681982E-52   -3.211361E-50    7.638622E-49   -5.170992E-48    7.942178E-48    3.757065E-48    1.713821E-48
         8.553424E-49    1.881611E-49    1.829409E-50    1.026088E-51

 CONCENTRATION WILL BE SAVED ON UNIT 1027 AT END OF TIME STEP    1, STRESS PERIOD   21


  MASS BUDGET FOR ENTIRE MODEL AT END OF TIME STEP    1, STRESS PERIOD  21
  ---------------------------------------------------------------------------------------------------

     CUMULATIVE MASS      M       RATES FOR THIS TIME STEP      M/T          PACKAGE NAME    
     ------------------                 ------------------------                     ----------------

           IN:                                      IN:
           ---                                      ---
     STORAGE-AQUEOUS =           1.0605       STORAGE-AQUEOUS =       6.2456E-04     MST                              
                 WEL =           5.7870                   WEL =           0.0000     SSM_WEL-1                        
                 CHD =           0.0000                   CHD =           0.0000     SSM_CHD-1                        

            TOTAL IN =           6.8475              TOTAL IN =       6.2456E-04

          OUT:                                     OUT:
          ----                                     ----
     STORAGE-AQUEOUS =           6.8475       STORAGE-AQUEOUS =       6.2456E-04     MST                              
                 WEL =       1.2665E-25                   WEL =       9.8869E-28     SSM_WEL-1                        
                 CHD =           0.0000                   CHD =           0.0000     SSM_CHD-1                        

           TOTAL OUT =           6.8475             TOTAL OUT =       6.2456E-04

            IN - OUT =      -2.4262E-09              IN - OUT =       2.4934E-11

 PERCENT DISCREPANCY =          -0.00     PERCENT DISCREPANCY =           0.00




         TIME SUMMARY AT END OF TIME STEP    1 IN STRESS PERIOD   21
                    SECONDS     MINUTES      HOURS       DAYS        YEARS
                    -----------------------------------------------------------
   TIME STEP LENGTH  100.00      1.6667     2.77778E-02 1.15741E-03 3.16881E-06
 STRESS PERIOD TIME  100.00      1.6667     2.77778E-02 1.15741E-03 3.16881E-06
         TOTAL TIME  2100.0      35.000     0.58333     2.43056E-02 6.65450E-05


end timestep


start timestep kper="22" kstp="1" mode="normal"


 OUTPUT CONTROL FOR STRESS PERIOD 22 IS REPEATED USING SETTINGS FROM A PREVIOUS STRESS PERIOD.
 UBDSV1 SAVING     FLOW-JA-FACE ON UNIT   1026 AT TIME STEP      1, STRESS PERIOD     22
 UBDSV1 SAVING  STORAGE-AQUEOUS ON UNIT   1026 AT TIME STEP      1, STRESS PERIOD     22
 UBDSV06 SAVING  SOURCE-SINK MIX IN MODEL GWT-P09-MF6      PACKAGE GWT-P09-MF6     CONNECTED TO MODEL GWT-P09-MF6      PACKAGE SSM              ON UNIT   1026 AT TIME STEP      1, STRESS PERIOD     22

 SSM PACKAGE (SSM) FLOW RATES   PERIOD     22   STEP        1
 ------------------------------------------------------------------------------------------------
   NUMBER   CELLID                   BOUND Q        SSM CONC          RATE         PACKAGE NAME  
 ------------------------------------------------------------------------------------------------
     1      (1,4,7)               1.00000000E-03  0.0000000       0.0000000           WEL-1      
     2      (1,11,7)             -1.89000000E-02  1.65536051E-25 -3.12863137E-27      WEL-1      
     1      (1,1,1)               0.11438482      0.0000000       0.0000000           CHD-1      
     2      (1,18,1)              4.15381785E-03  0.0000000       0.0000000           CHD-1      
     3      (1,1,2)               0.11420533      0.0000000       0.0000000           CHD-1      
     4      (1,18,2)              9.86397682E-03  0.0000000       0.0000000           CHD-1      
     5      (1,1,3)               0.11403604      0.0000000       0.0000000           CHD-1      
     6      (1,18,3)              1.13292549E-02  0.0000000       0.0000000           CHD-1      
     7      (1,1,4)               0.11393605      0.0000000       0.0000000           CHD-1      
     8      (1,18,4)              1.25966097E-02  0.0000000       0.0000000           CHD-1      
     9      (1,1,5)               0.11389644      0.0000000       0.0000000           CHD-1      
     10     (1,18,5)              1.37933250E-02  0.0000000       0.0000000           CHD-1      
     11     (1,1,6)               0.11391110      0.0000000       0.0000000           CHD-1      
     12     (1,18,6)              1.49638569E-02  0.0000000       0.0000000           CHD-1      
     13     (1,1,7)               0.11400619      0.0000000       0.0000000           CHD-1      
     14     (1,18,7)              1.61215252E-02  0.0000000       0.0000000           CHD-1      
     15     (1,1,8)               0.11423529      0.0000000       0.0000000           CHD-1      
     16     (1,18,8)              1.72705208E-02  0.0000000       0.0000000           CHD-1      
     17     (1,1,9)               0.11453972      0.0000000       0.0000000           CHD-1      
     18     (1,18,9)              1.84175253E-02  0.0000000       0.0000000           CHD-1      
     19     (1,1,10)              0.11475575      0.0000000       0.0000000           CHD-1      
     20     (1,18,10)             1.95731270E-02  0.0000000       0.0000000           CHD-1      
     21     (1,1,11)              0.11486877      0.0000000       0.0000000           CHD-1      
     22     (1,18,11)             2.07566611E-02  0.0000000       0.0000000           CHD-1      
     23     (1,1,12)              0.11491800      0.0000000       0.0000000           CHD-1      
     24     (1,18,12)             2.20150361E-02  0.0000000       0.0000000           CHD-1      
     25     (1,1,13)              0.11493678      0.0000000       0.0000000           CHD-1      
     26     (1,18,13)             2.34753035E-02  0.0000000       0.0000000           CHD-1      
     27     (1,1,14)              0.11494276      0.0000000       0.0000000           CHD-1      
     28     (1,18,14)             2.91833376E-02  0.0000000       0.0000000           CHD-1      
 ------------------------------------------------------------------------------------------------



1
  CONCENTRATION IN LAYER   1 AT END OF TIME STEP   1 IN STRESS PERIOD   22
  ---------------------------------------------------------------------------

                1               2               3               4               5               6               7               8               9              10
               11              12              13              14
 ................................................................................................................................................................
   1     2.925163E-18    4.347842E-16    5.865488E-14    6.831329E-12    6.479685E-10    4.476759E-08    1.717916E-06    5.223715E-08    8.292881E-10    8.880577E-12
         7.358603E-14    5.155281E-16    3.218340E-18    1.856550E-20
   2     1.969289E-17    3.371230E-15    5.318487E-13    7.354097E-11    8.417947E-09    7.137871E-07    3.468091E-05    9.479430E-07    1.348417E-08    1.214273E-10
         8.079229E-13    4.502583E-15    2.259363E-17    1.063137E-19
   3     8.424235E-17    1.728789E-14    3.401176E-12    6.073313E-10    9.168667E-08    1.039425E-05    6.927173E-04    1.654245E-05    2.043472E-07    1.442237E-09
         6.933721E-12    2.711010E-14    9.517012E-17    3.144582E-19
   4     1.881178E-16    4.410115E-14    1.138881E-11    3.082591E-09    7.416559E-07    1.319350E-04    1.215212E-02    1.853739E-04    1.894421E-06    9.858899E-09
         3.197281E-11    7.981716E-14    1.738796E-16    3.531100E-19
   5     1.430637E-17    2.920096E-15    8.217444E-13    2.676935E-10    8.426570E-08    2.072865E-05    2.310143E-03    3.046955E-05    4.641129E-07    1.842842E-09
         3.970236E-12    7.658309E-15    1.495305E-17    2.857917E-20
   6    -7.904782E-19   -7.623996E-19   -5.090930E-17    2.481527E-14    1.566948E-11    5.315763E-09    6.656582E-07   -6.087901E-10    7.550795E-09    2.268780E-11
         4.722950E-14    1.434399E-16    3.488613E-19    7.003541E-22
   7    -8.474259E-21   -2.408663E-24   -6.342469E-24    3.758942E-21    2.495261E-18    7.157304E-16    1.320904E-13    3.482897E-14    8.079332E-11    1.300666E-13
         2.985265E-16    1.236109E-18    3.201603E-21    6.454139E-24
   8    -3.533349E-23   -1.372281E-28    8.667764E-31    1.414624E-28    8.322983E-26    8.414569E-24    3.537878E-21    4.411590E-19    3.317481E-13    3.897451E-16
         1.230694E-18    4.855796E-21    1.222059E-23    2.352846E-26
   9    -5.613774E-26    4.616542E-28    9.212868E-32    1.776153E-31    6.283217E-29   -6.340299E-26   -2.518064E-21   -6.592490E-18    5.751927E-16    4.928517E-18
         4.133460E-21    1.089903E-23    2.342080E-26    3.806192E-29
  10    -2.030634E-29    2.721223E-31   -1.181051E-34    1.260018E-34   -6.291729E-31   -1.260288E-27    8.467444E-23   -1.464413E-20    3.159243E-19    7.438606E-21
         2.473227E-23    1.457922E-26    2.690347E-29    3.494382E-32
  11    -4.594087E-34    4.223435E-35   -1.451308E-36    2.856545E-36    1.215140E-31    9.539413E-28    1.655361E-25   -1.465832E-23    4.112596E-23    3.686688E-24
         5.986288E-26    1.312955E-28    4.325859E-32    5.781016E-35
  12    -1.046143E-38    3.081455E-39   -3.275384E-40    1.449041E-36    2.497268E-32    2.457929E-30    3.058776E-28   -2.720562E-27    2.082062E-27    1.055303E-27
         5.423159E-29    4.762554E-31    5.287500E-34    1.357609E-37
  13    -8.706192E-43    2.908799E-43    1.168773E-41    2.577173E-37    4.438659E-35    5.211923E-33    1.356830E-31   -6.699396E-31    2.727767E-31    2.178587E-31
         2.315068E-32    5.401613E-34    2.582693E-36    2.353501E-39
  14    -1.508848E-46   -1.469824E-46   -1.205572E-42   -6.507171E-41    6.656152E-39    1.176437E-36    5.654250E-35   -2.283500E-34    7.046552E-35    7.598052E-35
         1.108224E-35    4.633888E-37    5.630142E-39    2.107192E-41
  15    -4.296411E-50    1.581363E-47    6.515585E-46   -1.366288E-43   -1.707147E-41   -4.942020E-40    3.252636E-38   -1.176369E-37    3.038850E-38    4.428678E-38
         8.290532E-39    5.124546E-40    1.117434E-41    1.005210E-43
  16    -4.102586E-52   -1.307793E-50    4.361501E-48    4.932601E-46    7.476486E-45   -1.467626E-42    2.674814E-41   -8.788591E-41    1.868111E-41    3.903896E-41
         9.251176E-42    7.895653E-43    2.668751E-44    4.408105E-46
  17     9.467621E-55   -1.655767E-52   -2.251554E-50   -1.859487E-49    8.827628E-47   -2.653505E-45    2.784129E-44   -8.302611E-44    1.334471E-44    4.504757E-44
         1.354743E-44    1.556626E-45    7.727818E-47    2.149530E-48
  18     9.896475E-57    2.591765E-54    4.513908E-53   -1.142290E-50    3.745514E-49   -5.200073E-48    3.301387E-47   -7.981804E-47    2.475484E-48    5.697226E-47
         2.419286E-47    4.084607E-48    3.266680E-49    1.584664E-50

 CONCENTRATION WILL BE SAVED ON UNIT 1027 AT END OF TIME STEP    1, STRESS PERIOD   22


  MASS BUDGET FOR ENTIRE MODEL AT END OF TIME STEP    1, STRESS PERIOD  22
  ---------------------------------------------------------------------------------------------------

     CUMULATIVE MASS      M       RATES FOR THIS TIME STEP      M/T          PACKAGE NAME    
     ------------------                 ------------------------                     ----------------

           IN:                                      IN:
           ---                                      ---
     STORAGE-AQUEOUS =           1.1215       STORAGE-AQUEOUS =       6.0911E-04     MST                              
                 WEL =           5.7870                   WEL =           0.0000     SSM_WEL-1                        
                 CHD =           0.0000                   CHD =           0.0000     SSM_CHD-1                        

            TOTAL IN =           6.9085              TOTAL IN =       6.0911E-04

          OUT:                                     OUT:
          ----                                     ----
     STORAGE-AQUEOUS =           6.9085       STORAGE-AQUEOUS =       6.0911E-04     MST                              
                 WEL =       4.3952E-25                   WEL =       3.1286E-27     SSM_WEL-1                        
                 CHD =           0.0000                   CHD =           0.0000     SSM_CHD-1                        

           TOTAL OUT =           6.9085             TOTAL OUT =       6.0911E-04

            IN - OUT =       4.5309E-10              IN - OUT =       2.8793E-11

 PERCENT DISCREPANCY =           0.00     PERCENT DISCREPANCY =           0.00




         TIME SUMMARY AT END OF TIME STEP    1 IN STRESS PERIOD   22
                    SECONDS     MINUTES      HOURS       DAYS        YEARS
                    -----------------------------------------------------------
   TIME STEP LENGTH  100.00      1.6667     2.77778E-02 1.15741E-03 3.16881E-06
 STRESS PERIOD TIME  100.00      1.6667     2.77778E-02 1.15741E-03 3.16881E-06
         TOTAL TIME  2200.0      36.667     0.61111     2.54630E-02 6.97138E-05


end timestep


start timestep kper="23" kstp="1" mode="normal"


 OUTPUT CONTROL FOR STRESS PERIOD 23 IS REPEATED USING SETTINGS FROM A PREVIOUS STRESS PERIOD.
 UBDSV1 SAVING     FLOW-JA-FACE ON UNIT   1026 AT TIME STEP      1, STRESS PERIOD     23
 UBDSV1 SAVING  STORAGE-AQUEOUS ON UNIT   1026 AT TIME STEP      1, STRESS PERIOD     23
 UBDSV06 SAVING  SOURCE-SINK MIX IN MODEL GWT-P09-MF6      PACKAGE GWT-P09-MF6     CONNECTED TO MODEL GWT-P09-MF6      PACKAGE SSM              ON UNIT   1026 AT TIME STEP      1, STRESS PERIOD     23

 SSM PACKAGE (SSM) FLOW RATES   PERIOD     23   STEP        1
 ------------------------------------------------------------------------------------------------
   NUMBER   CELLID                   BOUND Q        SSM CONC          RATE         PACKAGE NAME  
 ------------------------------------------------------------------------------------------------
     1      (1,4,7)               1.00000000E-03  0.0000000       0.0000000           WEL-1      
     2      (1,11,7)             -1.89000000E-02  4.61889839E-25 -8.72971795E-27      WEL-1      
     1      (1,1,1)               0.11179185      0.0000000       0.0000000           CHD-1      
     2      (1,18,1)              3.91639504E-03  0.0000000       0.0000000           CHD-1      
     3      (1,1,2)               0.11158948      0.0000000       0.0000000           CHD-1      
     4      (1,18,2)              9.61894822E-03  0.0000000       0.0000000           CHD-1      
     5      (1,1,3)               0.11139575      0.0000000       0.0000000           CHD-1      
     6      (1,18,3)              1.10702909E-02  0.0000000       0.0000000           CHD-1      
     7      (1,1,4)               0.11128025      0.0000000       0.0000000           CHD-1      
     8      (1,18,4)              1.23192565E-02  0.0000000       0.0000000           CHD-1      
     9      (1,1,5)               0.11123578      0.0000000       0.0000000           CHD-1      
     10     (1,18,5)              1.34948129E-02  0.0000000       0.0000000           CHD-1      
     11     (1,1,6)               0.11125658      0.0000000       0.0000000           CHD-1      
     12     (1,18,6)              1.46424907E-02  0.0000000       0.0000000           CHD-1      
     13     (1,1,7)               0.11137086      0.0000000       0.0000000           CHD-1      
     14     (1,18,7)              1.57761460E-02  0.0000000       0.0000000           CHD-1      
     15     (1,1,8)               0.11163360      0.0000000       0.0000000           CHD-1      
     16     (1,18,8)              1.69003396E-02  0.0000000       0.0000000           CHD-1      
     17     (1,1,9)               0.11197990      0.0000000       0.0000000           CHD-1      
     18     (1,18,9)              1.80222966E-02  0.0000000       0.0000000           CHD-1      
     19     (1,1,10)              0.11222820      0.0000000       0.0000000           CHD-1      
     20     (1,18,10)             1.91534236E-02  0.0000000       0.0000000           CHD-1      
     21     (1,1,11)              0.11236014      0.0000000       0.0000000           CHD-1      
     22     (1,18,11)             2.03141576E-02  0.0000000       0.0000000           CHD-1      
     23     (1,1,12)              0.11241864      0.0000000       0.0000000           CHD-1      
     24     (1,18,12)             2.15528570E-02  0.0000000       0.0000000           CHD-1      
     25     (1,1,13)              0.11244137      0.0000000       0.0000000           CHD-1      
     26     (1,18,13)             2.29983738E-02  0.0000000       0.0000000           CHD-1      
     27     (1,1,14)              0.11244873      0.0000000       0.0000000           CHD-1      
     28     (1,18,14)             2.86984222E-02  0.0000000       0.0000000           CHD-1      
 ------------------------------------------------------------------------------------------------



1
  CONCENTRATION IN LAYER   1 AT END OF TIME STEP   1 IN STRESS PERIOD   23
  ---------------------------------------------------------------------------

                1               2               3               4               5               6               7               8               9              10
               11              12              13              14
 ................................................................................................................................................................
   1     3.778862E-18    5.486935E-16    7.225457E-14    8.196751E-12    7.560728E-10    5.074200E-08    1.892183E-06    6.000015E-08    9.912351E-10    1.096862E-11
         9.320728E-14    6.662285E-16    4.231161E-18    2.479249E-20
   2     2.601802E-17    4.297799E-15    6.543542E-13    8.721799E-11    9.624596E-09    7.873841E-07    3.704178E-05    1.069637E-06    1.607400E-08    1.514423E-10
         1.040158E-12    5.928348E-15    3.028989E-17    1.448847E-19
   3     1.174301E-16    2.267942E-14    4.215338E-12    7.130568E-10    1.023769E-07    1.108675E-05    7.109231E-04    1.819284E-05    2.416218E-07    1.817552E-09
         9.150924E-12    3.696913E-14    1.332893E-16    4.514295E-19
   4     2.799811E-16    6.022618E-14    1.427845E-11    3.582552E-09    8.092961E-07    1.360565E-04    1.182904E-02    1.966075E-04    2.207698E-06    1.249687E-08
         4.329823E-11    1.138773E-13    2.594780E-16    5.489626E-19
   5     2.574176E-17    4.454261E-15    1.122509E-12    3.359517E-10    9.938512E-08    2.314445E-05    2.427140E-03    3.554188E-05    6.097825E-07    2.748762E-09
         6.384880E-12    1.258346E-14    2.489009E-17    4.871176E-20
   6    -1.297229E-18   -1.211835E-18   -7.946304E-17    3.404815E-14    2.098784E-11    6.781723E-09    7.945220E-07   -4.936356E-10    1.167697E-08    4.117074E-11
         8.679139E-14    2.537557E-16    6.294199E-19    1.302758E-21
   7    -1.565097E-20   -4.528545E-24   -1.171178E-23    6.112904E-21    3.953925E-18    1.088312E-15    1.866117E-13    5.064603E-14    1.434070E-10    2.921767E-13
         5.915196E-16    2.379850E-18    6.382673E-21    1.332551E-23
   8    -7.507154E-23   -3.527482E-28    1.567321E-30    2.621219E-28    1.501253E-25    1.475793E-23    5.896481E-21    1.480032E-18    6.902143E-13    1.061974E-15
         2.758605E-18    1.055787E-20    2.754873E-23    5.507844E-26
   9    -1.404673E-25    1.161076E-27    2.738662E-31    3.223587E-31    1.123797E-28   -1.730628E-25   -6.865224E-21   -1.578455E-17    1.418731E-15    1.250439E-17
         1.250201E-20    2.753526E-23    6.021263E-26    1.025643E-28
  10    -6.088810E-29    8.142233E-31   -2.124710E-34    1.352410E-34   -1.852257E-30   -4.183495E-27    2.224306E-22   -3.956322E-20    9.077818E-19    2.155928E-20
         7.561959E-23    5.128521E-26    8.052988E-29    1.076231E-31
  11    -1.875620E-33    1.349056E-34   -4.948514E-36    7.621490E-36    3.528891E-31    2.604913E-27    4.618898E-25   -4.403439E-23    1.279597E-22    1.210292E-23
         1.958737E-25    4.531380E-28    1.729859E-31    1.950296E-34
  12    -4.557285E-38    1.248776E-38   -1.128308E-39    5.544220E-36    7.722356E-32    8.053004E-30    1.014268E-27   -9.215915E-27    7.248425E-27    3.712492E-27
         1.995830E-28    1.776424E-30    2.116145E-33    6.293941E-37
  13    -4.112057E-42    1.287441E-42    5.082108E-41    8.793337E-37    1.574004E-34    1.849067E-32    5.021100E-31   -2.538029E-30    1.078962E-30    8.603836E-31
         9.343055E-32    2.262380E-33    1.106928E-35    1.087768E-38
  14    -7.553223E-46   -7.664187E-46   -4.857082E-42   -3.028308E-40    1.949426E-38    4.428136E-36    2.358709E-34   -9.674457E-34    3.103482E-34    3.335371E-34
         4.951466E-35    2.123446E-36    2.650432E-38    1.018437E-40
  15    -2.165344E-49    7.470282E-47    3.416725E-45   -5.466400E-43   -7.807591E-41   -2.591416E-39    1.528958E-37   -5.546723E-37    1.459221E-37    2.131191E-37
         4.047673E-38    2.548803E-39    5.666410E-41    5.212618E-43
  16    -2.312529E-51   -5.648201E-50    2.279339E-47    2.677560E-45    4.550023E-44   -7.995255E-42    1.424969E-40   -4.625313E-40    9.542388E-41    2.044364E-40
         4.898446E-41    4.235786E-42    1.451239E-43    2.434883E-45
  17     2.009490E-54   -1.239423E-51   -1.420125E-49   -5.043107E-49    5.434817E-46   -1.663838E-44    1.736535E-43   -5.006083E-43    6.776757E-44    2.580747E-43
         7.818579E-44    9.048240E-45    4.527419E-46    1.271586E-47
  18     1.857956E-55    1.823583E-53   -4.924327E-53   -7.723366E-50    2.887106E-48   -4.202646E-47    2.649249E-46   -5.948226E-46   -1.963882E-47    3.656476E-46
         1.564849E-46    2.640153E-47    2.110838E-48    1.025329E-49

 CONCENTRATION WILL BE SAVED ON UNIT 1027 AT END OF TIME STEP    1, STRESS PERIOD   23


  MASS BUDGET FOR ENTIRE MODEL AT END OF TIME STEP    1, STRESS PERIOD  23
  ---------------------------------------------------------------------------------------------------

     CUMULATIVE MASS      M       RATES FOR THIS TIME STEP      M/T          PACKAGE NAME    
     ------------------                 ------------------------                     ----------------

           IN:                                      IN:
           ---                                      ---
     STORAGE-AQUEOUS =           1.1808       STORAGE-AQUEOUS =       5.9296E-04     MST                              
                 WEL =           5.7870                   WEL =           0.0000     SSM_WEL-1                        
                 CHD =           0.0000                   CHD =           0.0000     SSM_CHD-1                        

            TOTAL IN =           6.9678              TOTAL IN =       5.9296E-04

          OUT:                                     OUT:
          ----                                     ----
     STORAGE-AQUEOUS =           6.9678       STORAGE-AQUEOUS =       5.9296E-04     MST                              
                 WEL =       1.3125E-24                   WEL =       8.7297E-27     SSM_WEL-1                        
                 CHD =           0.0000                   CHD =           0.0000     SSM_CHD-1                        

           TOTAL OUT =           6.9678             TOTAL OUT =       5.9296E-04

            IN - OUT =       3.6874E-09              IN - OUT =       3.2344E-11

 PERCENT DISCREPANCY =           0.00     PERCENT DISCREPANCY =           0.00




         TIME SUMMARY AT END OF TIME STEP    1 IN STRESS PERIOD   23
                    SECONDS     MINUTES      HOURS       DAYS        YEARS
                    -----------------------------------------------------------
   TIME STEP LENGTH  100.00      1.6667     2.77778E-02 1.15741E-03 3.16881E-06
 STRESS PERIOD TIME  100.00      1.6667     2.77778E-02 1.15741E-03 3.16881E-06
         TOTAL TIME  2300.0      38.333     0.63889     2.66204E-02 7.28826E-05


end timestep


start timestep kper="24" kstp="1" mode="normal"


 OUTPUT CONTROL FOR STRESS PERIOD 24 IS REPEATED USING SETTINGS FROM A PREVIOUS STRESS PERIOD.
 UBDSV1 SAVING     FLOW-JA-FACE ON UNIT   1026 AT TIME STEP      1, STRESS PERIOD     24
 UBDSV1 SAVING  STORAGE-AQUEOUS ON UNIT   1026 AT TIME STEP      1, STRESS PERIOD     24
 UBDSV06 SAVING  SOURCE-SINK MIX IN MODEL GWT-P09-MF6      PACKAGE GWT-P09-MF6     CONNECTED TO MODEL GWT-P09-MF6      PACKAGE SSM              ON UNIT   1026 AT TIME STEP      1, STRESS PERIOD     24

 SSM PACKAGE (SSM) FLOW RATES   PERIOD     24   STEP        1
 ------------------------------------------------------------------------------------------------
   NUMBER   CELLID                   BOUND Q        SSM CONC          RATE         PACKAGE NAME  
 ------------------------------------------------------------------------------------------------
     1      (1,4,7)               1.00000000E-03  0.0000000       0.0000000           WEL-1      
     2      (1,11,7)             -1.89000000E-02  1.18309798E-24 -2.23605519E-26      WEL-1      
     1      (1,1,1)               0.10934322      0.0000000       0.0000000           CHD-1      
     2      (1,18,1)              3.69269856E-03  0.0000000       0.0000000           CHD-1      
     3      (1,1,2)               0.10911699      0.0000000       0.0000000           CHD-1      
     4      (1,18,2)              9.38831343E-03  0.0000000       0.0000000           CHD-1      
     5      (1,1,3)               0.10889739      0.0000000       0.0000000           CHD-1      
     6      (1,18,3)              1.08268949E-02  0.0000000       0.0000000           CHD-1      
     7      (1,1,4)               0.10876527      0.0000000       0.0000000           CHD-1      
     8      (1,18,4)              1.20589333E-02  0.0000000       0.0000000           CHD-1      
     9      (1,1,5)               0.10871564      0.0000000       0.0000000           CHD-1      
     10     (1,18,5)              1.32149042E-02  0.0000000       0.0000000           CHD-1      
     11     (1,1,6)               0.10874333      0.0000000       0.0000000           CHD-1      
     12     (1,18,6)              1.43413185E-02  0.0000000       0.0000000           CHD-1      
     13     (1,1,7)               0.10887854      0.0000000       0.0000000           CHD-1      
     14     (1,18,7)              1.54525406E-02  0.0000000       0.0000000           CHD-1      
     15     (1,1,8)               0.10917743      0.0000000       0.0000000           CHD-1      
     16     (1,18,8)              1.65535038E-02  0.0000000       0.0000000           CHD-1      
     17     (1,1,9)               0.10956828      0.0000000       0.0000000           CHD-1      
     18     (1,18,9)              1.76519773E-02  0.0000000       0.0000000           CHD-1      
     19     (1,1,10)              0.10985123      0.0000000       0.0000000           CHD-1      
     20     (1,18,10)             1.87601791E-02  0.0000000       0.0000000           CHD-1      
     21     (1,1,11)              0.11000379      0.0000000       0.0000000           CHD-1      
     22     (1,18,11)             1.98996207E-02  0.0000000       0.0000000           CHD-1      
     23     (1,1,12)              0.11007258      0.0000000       0.0000000           CHD-1      
     24     (1,18,12)             2.11200319E-02  0.0000000       0.0000000           CHD-1      
     25     (1,1,13)              0.11009978      0.0000000       0.0000000           CHD-1      
     26     (1,18,13)             2.25519101E-02  0.0000000       0.0000000           CHD-1      
     27     (1,1,14)              0.11010874      0.0000000       0.0000000           CHD-1      
     28     (1,18,14)             2.82446058E-02  0.0000000       0.0000000           CHD-1      
 ------------------------------------------------------------------------------------------------



1
  CONCENTRATION IN LAYER   1 AT END OF TIME STEP   1 IN STRESS PERIOD   24
  ---------------------------------------------------------------------------

                1               2               3               4               5               6               7               8               9              10
               11              12              13              14
 ................................................................................................................................................................
   1     4.832258E-18    6.854069E-16    8.812373E-14    9.741750E-12    8.744739E-10    5.706778E-08    2.070810E-06    6.841258E-08    1.175516E-09    1.343764E-11
         1.170539E-13    8.531117E-16    5.508019E-18    3.276117E-20
   2     3.403012E-17    5.423039E-15    7.970001E-13    1.024544E-10    1.091062E-08    8.624287E-07    3.935897E-05    1.199077E-06    1.901861E-08    1.874209E-10
         1.328514E-12    7.738235E-15    4.021780E-17    1.953605E-19
   3     1.615856E-16    2.939733E-14    5.167554E-12    8.291375E-10    1.134169E-07    1.175884E-05    7.273494E-04    1.990215E-05    2.835970E-07    2.271085E-09
         1.196730E-11    4.990269E-14    1.844932E-16    6.393745E-19
   4     4.089093E-16    8.099875E-14    1.768500E-11    4.124106E-09    8.774677E-07    1.398770E-04    1.151730E-02    2.079375E-04    2.555392E-06    1.569052E-08
         5.796330E-11    1.602478E-13    3.809148E-16    8.373556E-19
   5     4.466791E-17    6.657103E-15    1.508922E-12    4.158277E-10    1.159195E-07    2.564185E-05    2.538777E-03    4.111644E-05    7.887414E-07    4.003914E-09
         1.003843E-11    2.032040E-14    4.070859E-17    8.129689E-20
   6    -2.060982E-18   -1.875760E-18   -1.204359E-16    4.576580E-14    2.762473E-11    8.529375E-09    9.381474E-07   -2.650339E-10    1.746009E-08    7.099996E-11
         1.552338E-13    4.406236E-16    1.110246E-18    2.359954E-21
   7    -2.783608E-20   -8.205523E-24   -2.084511E-23    9.665523E-21    6.109877E-18    1.617890E-15    2.588030E-13    7.247161E-14    2.432241E-10    6.016860E-13
         1.153418E-15    4.469562E-18    1.235346E-20    2.661244E-23
   8    -1.525702E-22   -8.577219E-28    2.637083E-30    4.694307E-28    2.627191E-25    2.510165E-23    9.558587E-21    4.140443E-18    1.354094E-12    2.573686E-15
         5.994562E-18    2.222133E-20    5.983905E-23    1.237656E-25
   9    -3.335179E-25    2.766264E-27    7.662328E-31    5.618591E-31    1.915765E-28   -4.540142E-25   -1.730524E-20   -3.521693E-17    3.256263E-15    2.950439E-17
         3.403293E-20    6.687981E-23    1.482676E-25    2.633115E-28
  10    -1.716963E-28    2.293778E-30   -3.788857E-34    3.029179E-35   -4.921848E-30   -9.518838E-27    5.410418E-22   -9.870769E-20    2.403110E-18    5.759571E-20
         2.119148E-22    1.622454E-25    2.289471E-28    3.142881E-31
  11    -7.016395E-33    4.167768E-34   -1.577077E-35    1.595054E-35    9.348122E-31    6.463252E-27    1.183098E-24   -1.208913E-22    3.658266E-22    3.607009E-23
         5.803909E-25    1.408649E-27    6.123788E-31    6.196693E-34
  12    -1.812010E-37    4.787076E-38   -3.791439E-39    1.787846E-35    2.126682E-31    2.369274E-29    3.028867E-27   -2.818499E-26    2.284790E-26    1.177613E-26
         6.580350E-28    5.918113E-30    7.504423E-33    2.546331E-36
  13    -1.779076E-41    5.357474E-42    1.791176E-40    2.600697E-36    4.893267E-34    5.771134E-32    1.640578E-30   -8.509863E-30    3.790245E-30    3.009533E-30
         3.335892E-31    8.357302E-33    4.169211E-35    4.376414E-38
  14    -3.478194E-45   -2.841005E-45   -1.633434E-41   -1.195692E-39    4.075192E-38    1.402351E-35    8.453102E-34   -3.536516E-33    1.190658E-33    1.270433E-33
         1.920524E-34    8.448980E-36    1.082524E-37    4.254855E-40
  15    -1.045190E-48    2.795729E-46    1.574036E-44   -1.654227E-42   -2.886871E-40   -1.134971E-38    5.951768E-37   -2.183616E-36    5.991509E-37    8.687843E-37
         1.677614E-37    1.078690E-38    2.449465E-40    2.305090E-42
  16    -9.639632E-51   -2.940143E-49    8.346747E-47    1.116396E-44    2.483999E-43   -3.461282E-41    5.960563E-40   -1.939806E-39    4.116708E-40    8.795529E-40
         2.139602E-40    1.883352E-41    6.568250E-43    1.123093E-44
  17     8.759369E-54   -5.337533E-51   -6.532449E-49   -4.862106E-48    2.562693E-45   -7.600917E-44    7.784552E-43   -2.230176E-42    2.991156E-43    1.163185E-42
         3.573298E-43    4.199009E-44    2.133401E-45    6.089562E-47
  18     9.585559E-55    9.008673E-53   -2.164383E-52   -3.875196E-49    1.436175E-47   -2.068799E-46    1.287117E-45   -2.841168E-45   -1.296180E-46    1.727905E-45
         7.500028E-46    1.281621E-46    1.037939E-47    5.110630E-49

 CONCENTRATION WILL BE SAVED ON UNIT 1027 AT END OF TIME STEP    1, STRESS PERIOD   24


  MASS BUDGET FOR ENTIRE MODEL AT END OF TIME STEP    1, STRESS PERIOD  24
  ---------------------------------------------------------------------------------------------------

     CUMULATIVE MASS      M       RATES FOR THIS TIME STEP      M/T          PACKAGE NAME    
     ------------------                 ------------------------                     ----------------

           IN:                                      IN:
           ---                                      ---
     STORAGE-AQUEOUS =           1.2384       STORAGE-AQUEOUS =       5.7640E-04     MST                              
                 WEL =           5.7870                   WEL =           0.0000     SSM_WEL-1                        
                 CHD =           0.0000                   CHD =           0.0000     SSM_CHD-1                        

            TOTAL IN =           7.0254              TOTAL IN =       5.7640E-04

          OUT:                                     OUT:
          ----                                     ----
     STORAGE-AQUEOUS =           7.0254       STORAGE-AQUEOUS =       5.7640E-04     MST                              
                 WEL =       3.5485E-24                   WEL =       2.2361E-26     SSM_WEL-1                        
                 CHD =           0.0000                   CHD =           0.0000     SSM_CHD-1                        

           TOTAL OUT =           7.0254             TOTAL OUT =       5.7640E-04

            IN - OUT =       7.2342E-09              IN - OUT =       3.5468E-11

 PERCENT DISCREPANCY =           0.00     PERCENT DISCREPANCY =           0.00




         TIME SUMMARY AT END OF TIME STEP    1 IN STRESS PERIOD   24
                    SECONDS     MINUTES      HOURS       DAYS        YEARS
                    -----------------------------------------------------------
   TIME STEP LENGTH  100.00      1.6667     2.77778E-02 1.15741E-03 3.16881E-06
 STRESS PERIOD TIME  100.00      1.6667     2.77778E-02 1.15741E-03 3.16881E-06
         TOTAL TIME  2400.0      40.000     0.66667     2.77778E-02 7.60514E-05


end timestep

